/*---------------------------------------------------------------------------*\
  =========                 |
  \\      /  F ield         | OpenFOAM: The Open Source CFD Toolbox
   \\    /   O peration     | Website:  https://openfoam.org
    \\  /    A nd           | Version:  10
     \\/     M anipulation  |
\*---------------------------------------------------------------------------*/
Build  : 10
Exec   : icoFoam
Date   : Apr 07 2025
Time   : 08:42:44
Host   : "LiXiangCC"
PID    : 530560
I/O    : uncollated
Case   : /home/t/OpenFOAM/case1/flat_plate_ext_lowvis_delta
nProcs : 1
sigFpe : Enabling floating point exception trapping (FOAM_SIGFPE).
fileModificationChecking : Monitoring run-time modified files using timeStampMaster (fileModificationSkew 10)
allowSystemOperations : Allowing user-supplied system call operations

// * * * * * * * * * * * * * * * * * * * * * * * * * * * * * * * * * * * * * //
Create time

Create mesh for time = 0

Reading physicalProperties

Reading field p

Reading field U

Reading/calculating face flux field phi


Starting time loop

Time = 0.00025s

Courant Number mean: 0.05 max: 0.139886
smoothSolver:  Solving for Ux, Initial residual = 1, Final residual = 1.74091e-06, No Iterations 2
smoothSolver:  Solving for Uy, Initial residual = 0, Final residual = 0, No Iterations 0
DICPCG:  Solving for p, Initial residual = 1, Final residual = 0.038898, No Iterations 96
time step continuity errors : sum local = 4.30518e-10, global = -4.18346e-20, cumulative = -4.18346e-20
DICPCG:  Solving for p, Initial residual = 0.00335688, Final residual = 9.72188e-07, No Iterations 108
time step continuity errors : sum local = 3.97691e-13, global = -9.99377e-20, cumulative = -1.41772e-19
ExecutionTime = 0.028303 s  ClockTime = 0 s

Time = 0.0005s

Courant Number mean: 0.0500001 max: 0.140064
smoothSolver:  Solving for Ux, Initial residual = 0.11915, Final residual = 1.99714e-07, No Iterations 2
smoothSolver:  Solving for Uy, Initial residual = 0.154823, Final residual = 1.33565e-06, No Iterations 2
DICPCG:  Solving for p, Initial residual = 0.00876273, Final residual = 0.000382263, No Iterations 95
time step continuity errors : sum local = 1.52831e-10, global = -5.42324e-19, cumulative = -6.84096e-19
DICPCG:  Solving for p, Initial residual = 0.000791457, Final residual = 7.88071e-07, No Iterations 104
time step continuity errors : sum local = 3.71485e-13, global = 1.74113e-19, cumulative = -5.09983e-19
ExecutionTime = 0.037635 s  ClockTime = 0 s

Time = 0.00075s

Courant Number mean: 0.0500004 max: 0.140258
smoothSolver:  Solving for Ux, Initial residual = 0.0683693, Final residual = 1.14126e-07, No Iterations 2
smoothSolver:  Solving for Uy, Initial residual = 0.0914482, Final residual = 7.77126e-07, No Iterations 2
DICPCG:  Solving for p, Initial residual = 0.00434936, Final residual = 0.000198739, No Iterations 93
time step continuity errors : sum local = 9.34051e-11, global = -3.7635e-19, cumulative = -8.86333e-19
DICPCG:  Solving for p, Initial residual = 0.000390673, Final residual = 9.76226e-07, No Iterations 101
time step continuity errors : sum local = 4.77646e-13, global = 2.77276e-19, cumulative = -6.09057e-19
ExecutionTime = 0.046719 s  ClockTime = 0 s

Time = 0.001s

Courant Number mean: 0.0500007 max: 0.140459
smoothSolver:  Solving for Ux, Initial residual = 0.0474491, Final residual = 7.88237e-08, No Iterations 2
smoothSolver:  Solving for Uy, Initial residual = 0.0632264, Final residual = 5.3514e-07, No Iterations 2
DICPCG:  Solving for p, Initial residual = 0.0029292, Final residual = 0.000131837, No Iterations 80
time step continuity errors : sum local = 6.43937e-11, global = -3.27956e-19, cumulative = -9.37013e-19
DICPCG:  Solving for p, Initial residual = 0.000245627, Final residual = 8.88327e-07, No Iterations 99
time step continuity errors : sum local = 4.33568e-13, global = -1.13985e-19, cumulative = -1.051e-18
ExecutionTime = 0.055133 s  ClockTime = 0 s

Time = 0.00125s

Courant Number mean: 0.050001 max: 0.140662
smoothSolver:  Solving for Ux, Initial residual = 0.0358657, Final residual = 5.91599e-08, No Iterations 2
smoothSolver:  Solving for Uy, Initial residual = 0.0472459, Final residual = 4.00473e-07, No Iterations 2
DICPCG:  Solving for p, Initial residual = 0.00275701, Final residual = 0.000116021, No Iterations 87
time step continuity errors : sum local = 5.66271e-11, global = -9.04949e-20, cumulative = -1.14149e-18
DICPCG:  Solving for p, Initial residual = 0.000202909, Final residual = 9.21902e-07, No Iterations 98
time step continuity errors : sum local = 4.40582e-13, global = -6.80636e-20, cumulative = -1.20956e-18
ExecutionTime = 0.063814 s  ClockTime = 0 s

Time = 0.0015s

Courant Number mean: 0.0500012 max: 0.140863
smoothSolver:  Solving for Ux, Initial residual = 0.0285518, Final residual = 4.67188e-08, No Iterations 2
smoothSolver:  Solving for Uy, Initial residual = 0.0371531, Final residual = 3.16269e-07, No Iterations 2
DICPCG:  Solving for p, Initial residual = 0.00316044, Final residual = 0.00015294, No Iterations 89
time step continuity errors : sum local = 7.37268e-11, global = -2.17418e-19, cumulative = -1.42697e-18
DICPCG:  Solving for p, Initial residual = 0.000263956, Final residual = 9.76378e-07, No Iterations 97
time step continuity errors : sum local = 4.5271e-13, global = 2.15423e-19, cumulative = -1.21155e-18
ExecutionTime = 0.072486 s  ClockTime = 0 s

Time = 0.00175s

Courant Number mean: 0.0500015 max: 0.141061
smoothSolver:  Solving for Ux, Initial residual = 0.0234839, Final residual = 3.81451e-08, No Iterations 2
smoothSolver:  Solving for Uy, Initial residual = 0.0301995, Final residual = 2.58555e-07, No Iterations 2
DICPCG:  Solving for p, Initial residual = 0.00264203, Final residual = 0.000130446, No Iterations 92
time step continuity errors : sum local = 6.09726e-11, global = 1.10138e-19, cumulative = -1.10141e-18
DICPCG:  Solving for p, Initial residual = 0.00022845, Final residual = 8.7114e-07, No Iterations 94
time step continuity errors : sum local = 3.90396e-13, global = -3.445e-19, cumulative = -1.44591e-18
ExecutionTime = 0.08153 s  ClockTime = 0 s

Time = 0.002s

Courant Number mean: 0.0500017 max: 0.141253
smoothSolver:  Solving for Ux, Initial residual = 0.0197743, Final residual = 3.18594e-08, No Iterations 2
smoothSolver:  Solving for Uy, Initial residual = 0.0251599, Final residual = 2.16825e-07, No Iterations 2
DICPCG:  Solving for p, Initial residual = 0.00321609, Final residual = 0.000156472, No Iterations 92
time step continuity errors : sum local = 7.04269e-11, global = -2.75211e-19, cumulative = -1.72112e-18
DICPCG:  Solving for p, Initial residual = 0.000289539, Final residual = 9.80859e-07, No Iterations 98
time step continuity errors : sum local = 4.20859e-13, global = 3.49948e-20, cumulative = -1.68613e-18
ExecutionTime = 0.090591 s  ClockTime = 0 s

Time = 0.00225s

Courant Number mean: 0.0500019 max: 0.141437
smoothSolver:  Solving for Ux, Initial residual = 0.0169394, Final residual = 2.70498e-08, No Iterations 2
smoothSolver:  Solving for Uy, Initial residual = 0.0213444, Final residual = 1.85242e-07, No Iterations 2
DICPCG:  Solving for p, Initial residual = 0.00286012, Final residual = 0.000130499, No Iterations 93
time step continuity errors : sum local = 5.62298e-11, global = 1.22614e-20, cumulative = -1.67387e-18
DICPCG:  Solving for p, Initial residual = 0.000241393, Final residual = 8.903e-07, No Iterations 99
time step continuity errors : sum local = 3.65726e-13, global = 9.78838e-20, cumulative = -1.57598e-18
ExecutionTime = 0.099792 s  ClockTime = 0 s

Time = 0.0025s

Courant Number mean: 0.0500021 max: 0.141612
smoothSolver:  Solving for Ux, Initial residual = 0.0147197, Final residual = 2.32783e-08, No Iterations 2
smoothSolver:  Solving for Uy, Initial residual = 0.0183814, Final residual = 1.60723e-07, No Iterations 2
DICPCG:  Solving for p, Initial residual = 0.0030377, Final residual = 0.000131295, No Iterations 93
time step continuity errors : sum local = 5.41292e-11, global = 7.27058e-20, cumulative = -1.50328e-18
DICPCG:  Solving for p, Initial residual = 0.000248464, Final residual = 7.85482e-07, No Iterations 100
time step continuity errors : sum local = 3.09601e-13, global = 2.85658e-19, cumulative = -1.21762e-18
ExecutionTime = 0.109112 s  ClockTime = 0 s

Time = 0.00275s

Courant Number mean: 0.0500022 max: 0.141776
smoothSolver:  Solving for Ux, Initial residual = 0.0129537, Final residual = 2.02726e-08, No Iterations 2
smoothSolver:  Solving for Uy, Initial residual = 0.0160504, Final residual = 1.41356e-07, No Iterations 2
DICPCG:  Solving for p, Initial residual = 0.0034988, Final residual = 0.000168483, No Iterations 92
time step continuity errors : sum local = 6.66022e-11, global = 4.49546e-19, cumulative = -7.68075e-19
DICPCG:  Solving for p, Initial residual = 0.000307788, Final residual = 9.03469e-07, No Iterations 100
time step continuity errors : sum local = 3.41238e-13, global = -2.30947e-19, cumulative = -9.99022e-19
ExecutionTime = 0.118297 s  ClockTime = 0 s

Time = 0.003s

Courant Number mean: 0.0500023 max: 0.141928
smoothSolver:  Solving for Ux, Initial residual = 0.0115202, Final residual = 9.41669e-06, No Iterations 1
smoothSolver:  Solving for Uy, Initial residual = 0.0141765, Final residual = 1.25763e-07, No Iterations 2
DICPCG:  Solving for p, Initial residual = 0.00377096, Final residual = 0.000159823, No Iterations 92
time step continuity errors : sum local = 6.0562e-11, global = -1.00855e-19, cumulative = -1.09988e-18
DICPCG:  Solving for p, Initial residual = 0.000322417, Final residual = 8.71547e-07, No Iterations 100
time step continuity errors : sum local = 3.16028e-13, global = 5.79291e-20, cumulative = -1.04195e-18
ExecutionTime = 0.127705 s  ClockTime = 0 s

Time = 0.00325s

Courant Number mean: 0.0500024 max: 0.142068
smoothSolver:  Solving for Ux, Initial residual = 0.0103416, Final residual = 8.40976e-06, No Iterations 1
smoothSolver:  Solving for Uy, Initial residual = 0.0126512, Final residual = 1.13297e-07, No Iterations 2
DICPCG:  Solving for p, Initial residual = 0.00334443, Final residual = 0.000153547, No Iterations 92
time step continuity errors : sum local = 5.58465e-11, global = -9.2674e-20, cumulative = -1.13462e-18
DICPCG:  Solving for p, Initial residual = 0.000305323, Final residual = 8.59339e-07, No Iterations 100
time step continuity errors : sum local = 2.99853e-13, global = -2.32065e-19, cumulative = -1.36669e-18
ExecutionTime = 0.136817 s  ClockTime = 0 s

Time = 0.0035s

Courant Number mean: 0.0500024 max: 0.142193
smoothSolver:  Solving for Ux, Initial residual = 0.00936279, Final residual = 7.57786e-06, No Iterations 1
smoothSolver:  Solving for Uy, Initial residual = 0.0114344, Final residual = 1.0331e-07, No Iterations 2
DICPCG:  Solving for p, Initial residual = 0.00340742, Final residual = 0.000142042, No Iterations 92
time step continuity errors : sum local = 4.9717e-11, global = -4.21289e-19, cumulative = -1.78798e-18
DICPCG:  Solving for p, Initial residual = 0.000301411, Final residual = 8.05948e-07, No Iterations 100
time step continuity errors : sum local = 2.71561e-13, global = -6.65328e-19, cumulative = -2.4533e-18
ExecutionTime = 0.145961 s  ClockTime = 0 s

Time = 0.00375s

Courant Number mean: 0.0500025 max: 0.142304
smoothSolver:  Solving for Ux, Initial residual = 0.0085436, Final residual = 6.88189e-06, No Iterations 1
smoothSolver:  Solving for Uy, Initial residual = 0.0104396, Final residual = 9.50596e-08, No Iterations 2
DICPCG:  Solving for p, Initial residual = 0.00345393, Final residual = 0.000157719, No Iterations 91
time step continuity errors : sum local = 5.33629e-11, global = 9.16676e-20, cumulative = -2.36164e-18
DICPCG:  Solving for p, Initial residual = 0.000318639, Final residual = 7.92407e-07, No Iterations 100
time step continuity errors : sum local = 2.59079e-13, global = 1.43378e-20, cumulative = -2.3473e-18
ExecutionTime = 0.155053 s  ClockTime = 0 s

Time = 0.004s

Courant Number mean: 0.0500025 max: 0.142401
smoothSolver:  Solving for Ux, Initial residual = 0.00785505, Final residual = 6.29862e-06, No Iterations 1
smoothSolver:  Solving for Uy, Initial residual = 0.0096214, Final residual = 8.82035e-08, No Iterations 2
DICPCG:  Solving for p, Initial residual = 0.0035707, Final residual = 0.000162412, No Iterations 90
time step continuity errors : sum local = 5.32771e-11, global = -1.11945e-19, cumulative = -2.45924e-18
DICPCG:  Solving for p, Initial residual = 0.00032936, Final residual = 9.3709e-07, No Iterations 99
time step continuity errors : sum local = 2.97267e-13, global = 1.20961e-19, cumulative = -2.33828e-18
ExecutionTime = 0.16442 s  ClockTime = 0 s

Time = 0.00425s

Courant Number mean: 0.0500025 max: 0.142481
smoothSolver:  Solving for Ux, Initial residual = 0.00727397, Final residual = 5.80797e-06, No Iterations 1
smoothSolver:  Solving for Uy, Initial residual = 0.00894592, Final residual = 8.24838e-08, No Iterations 2
DICPCG:  Solving for p, Initial residual = 0.00367888, Final residual = 0.000158468, No Iterations 89
time step continuity errors : sum local = 5.07511e-11, global = -2.84355e-20, cumulative = -2.36672e-18
DICPCG:  Solving for p, Initial residual = 0.000327806, Final residual = 9.09591e-07, No Iterations 98
time step continuity errors : sum local = 2.84153e-13, global = -9.67259e-20, cumulative = -2.46344e-18
ExecutionTime = 0.173809 s  ClockTime = 0 s

Time = 0.0045s

Courant Number mean: 0.0500025 max: 0.142547
smoothSolver:  Solving for Ux, Initial residual = 0.00678248, Final residual = 5.39114e-06, No Iterations 1
smoothSolver:  Solving for Uy, Initial residual = 0.00839099, Final residual = 7.77004e-08, No Iterations 2
DICPCG:  Solving for p, Initial residual = 0.00366327, Final residual = 0.00016288, No Iterations 87
time step continuity errors : sum local = 5.1007e-11, global = -3.58236e-19, cumulative = -2.82168e-18
DICPCG:  Solving for p, Initial residual = 0.000328788, Final residual = 9.11731e-07, No Iterations 98
time step continuity errors : sum local = 2.81382e-13, global = 2.7949e-19, cumulative = -2.54219e-18
ExecutionTime = 0.182721 s  ClockTime = 0 s

Time = 0.00475s

Courant Number mean: 0.0500025 max: 0.142597
smoothSolver:  Solving for Ux, Initial residual = 0.00636543, Final residual = 5.03661e-06, No Iterations 1
smoothSolver:  Solving for Uy, Initial residual = 0.00793609, Final residual = 7.37235e-08, No Iterations 2
DICPCG:  Solving for p, Initial residual = 0.00365631, Final residual = 0.000172346, No Iterations 45
time step continuity errors : sum local = 6.64447e-11, global = 4.84962e-20, cumulative = -2.49369e-18
DICPCG:  Solving for p, Initial residual = 0.000330699, Final residual = 8.03218e-07, No Iterations 94
time step continuity errors : sum local = 2.48017e-13, global = 6.44287e-20, cumulative = -2.42926e-18
ExecutionTime = 0.189733 s  ClockTime = 0 s

Time = 0.005s

Courant Number mean: 0.0500024 max: 0.142631
smoothSolver:  Solving for Ux, Initial residual = 0.00601152, Final residual = 4.73539e-06, No Iterations 1
smoothSolver:  Solving for Uy, Initial residual = 0.00756875, Final residual = 7.046e-08, No Iterations 2
DICPCG:  Solving for p, Initial residual = 0.00357691, Final residual = 0.000149983, No Iterations 4
time step continuity errors : sum local = 4.60978e-11, global = -5.26331e-20, cumulative = -2.4819e-18
DICPCG:  Solving for p, Initial residual = 0.000255223, Final residual = 8.015e-07, No Iterations 99
time step continuity errors : sum local = 2.47177e-13, global = -2.20136e-19, cumulative = -2.70203e-18
ExecutionTime = 0.195202 s  ClockTime = 0 s

Time = 0.00525s

Courant Number mean: 0.0500024 max: 0.142651
smoothSolver:  Solving for Ux, Initial residual = 0.00571063, Final residual = 4.47885e-06, No Iterations 1
smoothSolver:  Solving for Uy, Initial residual = 0.00727678, Final residual = 6.78547e-08, No Iterations 2
DICPCG:  Solving for p, Initial residual = 0.0036629, Final residual = 0.000177684, No Iterations 40
time step continuity errors : sum local = 6.57664e-11, global = 1.3856e-19, cumulative = -2.56347e-18
DICPCG:  Solving for p, Initial residual = 0.000334583, Final residual = 9.07521e-07, No Iterations 96
time step continuity errors : sum local = 2.79856e-13, global = -1.71573e-19, cumulative = -2.73505e-18
ExecutionTime = 0.202188 s  ClockTime = 0 s

Time = 0.0055s

Courant Number mean: 0.0500024 max: 0.142656
smoothSolver:  Solving for Ux, Initial residual = 0.00545588, Final residual = 4.26117e-06, No Iterations 1
smoothSolver:  Solving for Uy, Initial residual = 0.00705606, Final residual = 6.58011e-08, No Iterations 2
DICPCG:  Solving for p, Initial residual = 0.00376839, Final residual = 0.000159044, No Iterations 87
time step continuity errors : sum local = 4.95208e-11, global = -2.61062e-19, cumulative = -2.99611e-18
DICPCG:  Solving for p, Initial residual = 0.000319359, Final residual = 9.77195e-07, No Iterations 94
time step continuity errors : sum local = 3.0863e-13, global = -2.76485e-20, cumulative = -3.02376e-18
ExecutionTime = 0.210774 s  ClockTime = 0 s

Time = 0.00575s

Courant Number mean: 0.0500024 max: 0.142647
smoothSolver:  Solving for Ux, Initial residual = 0.00524177, Final residual = 4.07784e-06, No Iterations 1
smoothSolver:  Solving for Uy, Initial residual = 0.00689282, Final residual = 6.43989e-08, No Iterations 2
DICPCG:  Solving for p, Initial residual = 0.00402828, Final residual = 0.00017165, No Iterations 89
time step continuity errors : sum local = 5.45349e-11, global = -3.59802e-19, cumulative = -3.38356e-18
DICPCG:  Solving for p, Initial residual = 0.00034612, Final residual = 9.16052e-07, No Iterations 99
time step continuity errors : sum local = 2.96754e-13, global = -5.0497e-19, cumulative = -3.88853e-18
ExecutionTime = 0.220053 s  ClockTime = 0 s

Time = 0.006s

Courant Number mean: 0.0500024 max: 0.142625
smoothSolver:  Solving for Ux, Initial residual = 0.00506475, Final residual = 3.92645e-06, No Iterations 1
smoothSolver:  Solving for Uy, Initial residual = 0.00678655, Final residual = 6.34441e-08, No Iterations 2
DICPCG:  Solving for p, Initial residual = 0.00576918, Final residual = 0.0002483, No Iterations 89
time step continuity errors : sum local = 8.10078e-11, global = -2.67757e-19, cumulative = -4.15629e-18
DICPCG:  Solving for p, Initial residual = 0.00048566, Final residual = 7.90569e-07, No Iterations 101
time step continuity errors : sum local = 2.66281e-13, global = -2.83748e-19, cumulative = -4.44003e-18
ExecutionTime = 0.228938 s  ClockTime = 0 s

Time = 0.00625s

Courant Number mean: 0.0500024 max: 0.142592
smoothSolver:  Solving for Ux, Initial residual = 0.00492616, Final residual = 3.80661e-06, No Iterations 1
smoothSolver:  Solving for Uy, Initial residual = 0.00674247, Final residual = 6.28386e-08, No Iterations 2
DICPCG:  Solving for p, Initial residual = 0.00533112, Final residual = 0.000228791, No Iterations 92
time step continuity errors : sum local = 7.71893e-11, global = 2.05997e-19, cumulative = -4.23404e-18
DICPCG:  Solving for p, Initial residual = 0.000428089, Final residual = 9.22799e-07, No Iterations 96
time step continuity errors : sum local = 3.28584e-13, global = -1.50375e-19, cumulative = -4.38441e-18
ExecutionTime = 0.238154 s  ClockTime = 0 s

Time = 0.0065s

Courant Number mean: 0.0500025 max: 0.142549
smoothSolver:  Solving for Ux, Initial residual = 0.00487155, Final residual = 3.75604e-06, No Iterations 1
smoothSolver:  Solving for Uy, Initial residual = 0.00686303, Final residual = 6.34712e-08, No Iterations 2
DICPCG:  Solving for p, Initial residual = 0.0106756, Final residual = 0.00046775, No Iterations 85
time step continuity errors : sum local = 1.66075e-10, global = -3.99776e-19, cumulative = -4.78419e-18
DICPCG:  Solving for p, Initial residual = 0.000857129, Final residual = 7.1612e-07, No Iterations 104
time step continuity errors : sum local = 2.59841e-13, global = 1.7784e-19, cumulative = -4.60635e-18
ExecutionTime = 0.247081 s  ClockTime = 0 s

Time = 0.00675s

Courant Number mean: 0.0500026 max: 0.142495
smoothSolver:  Solving for Ux, Initial residual = 0.00475599, Final residual = 3.65815e-06, No Iterations 1
smoothSolver:  Solving for Uy, Initial residual = 0.00683308, Final residual = 6.29116e-08, No Iterations 2
DICPCG:  Solving for p, Initial residual = 0.00770577, Final residual = 0.000349869, No Iterations 88
time step continuity errors : sum local = 1.27898e-10, global = 5.89665e-21, cumulative = -4.60045e-18
DICPCG:  Solving for p, Initial residual = 0.000652173, Final residual = 9.55162e-07, No Iterations 100
time step continuity errors : sum local = 3.29759e-13, global = 4.47389e-20, cumulative = -4.55571e-18
ExecutionTime = 0.25648 s  ClockTime = 0 s

Time = 0.007s

Courant Number mean: 0.0500027 max: 0.142427
smoothSolver:  Solving for Ux, Initial residual = 0.00445126, Final residual = 3.40744e-06, No Iterations 1
smoothSolver:  Solving for Uy, Initial residual = 0.00636044, Final residual = 5.8921e-08, No Iterations 2
DICPCG:  Solving for p, Initial residual = 0.00744486, Final residual = 0.0003149, No Iterations 84
time step continuity errors : sum local = 1.08496e-10, global = 6.59039e-20, cumulative = -4.48981e-18
DICPCG:  Solving for p, Initial residual = 0.00067101, Final residual = 9.99329e-07, No Iterations 98
time step continuity errors : sum local = 3.37688e-13, global = -6.17553e-20, cumulative = -4.55156e-18
ExecutionTime = 0.265009 s  ClockTime = 0 s

Time = 0.00725s

Courant Number mean: 0.0500027 max: 0.14235
smoothSolver:  Solving for Ux, Initial residual = 0.0042537, Final residual = 3.24281e-06, No Iterations 1
smoothSolver:  Solving for Uy, Initial residual = 0.0060744, Final residual = 5.64278e-08, No Iterations 2
DICPCG:  Solving for p, Initial residual = 0.00479228, Final residual = 0.000239136, No Iterations 38
time step continuity errors : sum local = 9.3324e-11, global = -1.08538e-19, cumulative = -4.6601e-18
DICPCG:  Solving for p, Initial residual = 0.000423732, Final residual = 9.938e-07, No Iterations 97
time step continuity errors : sum local = 3.39012e-13, global = -1.0709e-19, cumulative = -4.76719e-18
ExecutionTime = 0.271675 s  ClockTime = 0 s

Time = 0.0075s

Courant Number mean: 0.0500028 max: 0.142264
smoothSolver:  Solving for Ux, Initial residual = 0.00412155, Final residual = 3.13129e-06, No Iterations 1
smoothSolver:  Solving for Uy, Initial residual = 0.00592084, Final residual = 5.49739e-08, No Iterations 2
DICPCG:  Solving for p, Initial residual = 0.00446909, Final residual = 0.000205032, No Iterations 88
time step continuity errors : sum local = 7.06556e-11, global = 1.10081e-20, cumulative = -4.75618e-18
DICPCG:  Solving for p, Initial residual = 0.000374369, Final residual = 9.97125e-07, No Iterations 96
time step continuity errors : sum local = 3.50957e-13, global = -4.87131e-19, cumulative = -5.24331e-18
ExecutionTime = 0.280281 s  ClockTime = 0 s

Time = 0.00775s

Courant Number mean: 0.0500028 max: 0.142172
smoothSolver:  Solving for Ux, Initial residual = 0.00402384, Final residual = 3.04808e-06, No Iterations 1
smoothSolver:  Solving for Uy, Initial residual = 0.00583971, Final residual = 5.40606e-08, No Iterations 2
DICPCG:  Solving for p, Initial residual = 0.00674479, Final residual = 0.000317966, No Iterations 86
time step continuity errors : sum local = 1.11799e-10, global = -1.50649e-19, cumulative = -5.39396e-18
DICPCG:  Solving for p, Initial residual = 0.000618619, Final residual = 8.33429e-07, No Iterations 96
time step continuity errors : sum local = 2.99426e-13, global = -2.87214e-19, cumulative = -5.68118e-18
ExecutionTime = 0.288822 s  ClockTime = 0 s

Time = 0.008s

Courant Number mean: 0.0500029 max: 0.142075
smoothSolver:  Solving for Ux, Initial residual = 0.00393662, Final residual = 2.97344e-06, No Iterations 1
smoothSolver:  Solving for Uy, Initial residual = 0.00577715, Final residual = 5.32439e-08, No Iterations 2
DICPCG:  Solving for p, Initial residual = 0.00602484, Final residual = 0.000259217, No Iterations 86
time step continuity errors : sum local = 9.35491e-11, global = -3.59073e-19, cumulative = -6.04025e-18
DICPCG:  Solving for p, Initial residual = 0.000469627, Final residual = 9.39576e-07, No Iterations 97
time step continuity errors : sum local = 3.4633e-13, global = 2.94389e-20, cumulative = -6.01081e-18
ExecutionTime = 0.297418 s  ClockTime = 0 s

Time = 0.00825s

Courant Number mean: 0.050003 max: 0.141975
smoothSolver:  Solving for Ux, Initial residual = 0.00383885, Final residual = 2.89022e-06, No Iterations 1
smoothSolver:  Solving for Uy, Initial residual = 0.00568308, Final residual = 5.21723e-08, No Iterations 2
DICPCG:  Solving for p, Initial residual = 0.00774005, Final residual = 0.000310688, No Iterations 82
time step continuity errors : sum local = 1.15127e-10, global = 5.53428e-19, cumulative = -5.45738e-18
DICPCG:  Solving for p, Initial residual = 0.000598947, Final residual = 8.71851e-07, No Iterations 101
time step continuity errors : sum local = 3.13478e-13, global = -5.33588e-21, cumulative = -5.46272e-18
ExecutionTime = 0.306088 s  ClockTime = 0 s

Time = 0.0085s

Courant Number mean: 0.0500031 max: 0.141872
smoothSolver:  Solving for Ux, Initial residual = 0.00368236, Final residual = 2.75976e-06, No Iterations 1
smoothSolver:  Solving for Uy, Initial residual = 0.0054505, Final residual = 5.01196e-08, No Iterations 2
DICPCG:  Solving for p, Initial residual = 0.00622084, Final residual = 0.000265224, No Iterations 93
time step continuity errors : sum local = 9.57888e-11, global = 3.14057e-19, cumulative = -5.14866e-18
DICPCG:  Solving for p, Initial residual = 0.000433271, Final residual = 8.42132e-07, No Iterations 101
time step continuity errors : sum local = 3.322e-13, global = -1.75253e-19, cumulative = -5.32391e-18
ExecutionTime = 0.31539 s  ClockTime = 0 s

Time = 0.00875s

Courant Number mean: 0.0500032 max: 0.14177
smoothSolver:  Solving for Ux, Initial residual = 0.00374233, Final residual = 2.80372e-06, No Iterations 1
smoothSolver:  Solving for Uy, Initial residual = 0.00568262, Final residual = 5.16267e-08, No Iterations 2
DICPCG:  Solving for p, Initial residual = 0.00471908, Final residual = 0.000190948, No Iterations 93
time step continuity errors : sum local = 7.53751e-11, global = -2.3808e-19, cumulative = -5.56199e-18
DICPCG:  Solving for p, Initial residual = 0.000336432, Final residual = 8.14202e-07, No Iterations 100
time step continuity errors : sum local = 3.40162e-13, global = 2.05076e-19, cumulative = -5.35692e-18
ExecutionTime = 0.324472 s  ClockTime = 0 s

Time = 0.009s

Courant Number mean: 0.0500034 max: 0.14167
smoothSolver:  Solving for Ux, Initial residual = 0.00374709, Final residual = 2.80724e-06, No Iterations 1
smoothSolver:  Solving for Uy, Initial residual = 0.00580204, Final residual = 5.2277e-08, No Iterations 2
DICPCG:  Solving for p, Initial residual = 0.00402406, Final residual = 0.000199257, No Iterations 91
time step continuity errors : sum local = 8.34969e-11, global = -4.52292e-20, cumulative = -5.40215e-18
DICPCG:  Solving for p, Initial residual = 0.000324303, Final residual = 7.51938e-07, No Iterations 100
time step continuity errors : sum local = 3.26658e-13, global = 9.91119e-20, cumulative = -5.30303e-18
ExecutionTime = 0.333647 s  ClockTime = 0 s

Time = 0.00925s

Courant Number mean: 0.0500036 max: 0.141573
smoothSolver:  Solving for Ux, Initial residual = 0.00371626, Final residual = 2.78171e-06, No Iterations 1
smoothSolver:  Solving for Uy, Initial residual = 0.0058311, Final residual = 5.22622e-08, No Iterations 2
DICPCG:  Solving for p, Initial residual = 0.00366879, Final residual = 0.000169199, No Iterations 90
time step continuity errors : sum local = 7.3584e-11, global = -4.66788e-19, cumulative = -5.76982e-18
DICPCG:  Solving for p, Initial residual = 0.000294671, Final residual = 8.50006e-07, No Iterations 99
time step continuity errors : sum local = 3.78805e-13, global = 7.45076e-20, cumulative = -5.69531e-18
ExecutionTime = 0.342514 s  ClockTime = 1 s

Time = 0.0095s

Courant Number mean: 0.0500038 max: 0.141479
smoothSolver:  Solving for Ux, Initial residual = 0.00366572, Final residual = 2.73978e-06, No Iterations 1
smoothSolver:  Solving for Uy, Initial residual = 0.00580293, Final residual = 5.18989e-08, No Iterations 2
DICPCG:  Solving for p, Initial residual = 0.00343108, Final residual = 0.000162077, No Iterations 89
time step continuity errors : sum local = 7.24669e-11, global = -4.76319e-19, cumulative = -6.17163e-18
DICPCG:  Solving for p, Initial residual = 0.000282931, Final residual = 9.99517e-07, No Iterations 97
time step continuity errors : sum local = 4.52904e-13, global = 1.13699e-19, cumulative = -6.05794e-18
ExecutionTime = 0.351289 s  ClockTime = 1 s

Time = 0.00975s

Courant Number mean: 0.050004 max: 0.14139
smoothSolver:  Solving for Ux, Initial residual = 0.00360437, Final residual = 2.68947e-06, No Iterations 1
smoothSolver:  Solving for Uy, Initial residual = 0.00574157, Final residual = 5.1274e-08, No Iterations 2
DICPCG:  Solving for p, Initial residual = 0.00328156, Final residual = 0.000153404, No Iterations 88
time step continuity errors : sum local = 6.97767e-11, global = -3.33939e-20, cumulative = -6.09133e-18
DICPCG:  Solving for p, Initial residual = 0.000276577, Final residual = 8.43149e-07, No Iterations 97
time step continuity errors : sum local = 3.88069e-13, global = -2.93178e-19, cumulative = -6.38451e-18
ExecutionTime = 0.360344 s  ClockTime = 1 s

Time = 0.01s

Courant Number mean: 0.0500043 max: 0.141306
smoothSolver:  Solving for Ux, Initial residual = 0.00353793, Final residual = 2.63428e-06, No Iterations 1
smoothSolver:  Solving for Uy, Initial residual = 0.00566279, Final residual = 5.0466e-08, No Iterations 2
DICPCG:  Solving for p, Initial residual = 0.00327486, Final residual = 0.000141444, No Iterations 87
time step continuity errors : sum local = 6.50994e-11, global = -3.00818e-19, cumulative = -6.68532e-18
DICPCG:  Solving for p, Initial residual = 0.000257578, Final residual = 9.6581e-07, No Iterations 96
time step continuity errors : sum local = 4.50138e-13, global = 9.97859e-20, cumulative = -6.58554e-18
ExecutionTime = 0.368986 s  ClockTime = 1 s

Time = 0.01025s

Courant Number mean: 0.0500045 max: 0.141228
smoothSolver:  Solving for Ux, Initial residual = 0.00346864, Final residual = 2.57651e-06, No Iterations 1
smoothSolver:  Solving for Uy, Initial residual = 0.00556897, Final residual = 4.95397e-08, No Iterations 2
DICPCG:  Solving for p, Initial residual = 0.00330436, Final residual = 0.000161311, No Iterations 46
time step continuity errors : sum local = 9.31485e-11, global = -3.80266e-19, cumulative = -6.9658e-18
DICPCG:  Solving for p, Initial residual = 0.000286768, Final residual = 9.60371e-07, No Iterations 97
time step continuity errors : sum local = 4.48747e-13, global = -2.14184e-19, cumulative = -7.17999e-18
ExecutionTime = 0.375944 s  ClockTime = 1 s

Time = 0.0105s

Courant Number mean: 0.0500048 max: 0.141158
smoothSolver:  Solving for Ux, Initial residual = 0.00339757, Final residual = 2.51727e-06, No Iterations 1
smoothSolver:  Solving for Uy, Initial residual = 0.00546534, Final residual = 4.85075e-08, No Iterations 2
DICPCG:  Solving for p, Initial residual = 0.00342351, Final residual = 0.000157298, No Iterations 39
time step continuity errors : sum local = 8.75267e-11, global = -7.73413e-20, cumulative = -7.25733e-18
DICPCG:  Solving for p, Initial residual = 0.000291175, Final residual = 8.66934e-07, No Iterations 96
time step continuity errors : sum local = 4.10298e-13, global = 2.8783e-20, cumulative = -7.22855e-18
ExecutionTime = 0.382643 s  ClockTime = 1 s

Time = 0.01075s

Courant Number mean: 0.050005 max: 0.141095
smoothSolver:  Solving for Ux, Initial residual = 0.00332604, Final residual = 2.45721e-06, No Iterations 1
smoothSolver:  Solving for Uy, Initial residual = 0.00535417, Final residual = 4.74068e-08, No Iterations 2
DICPCG:  Solving for p, Initial residual = 0.00390709, Final residual = 0.000162503, No Iterations 38
time step continuity errors : sum local = 8.72351e-11, global = 3.65874e-19, cumulative = -6.86267e-18
DICPCG:  Solving for p, Initial residual = 0.000320438, Final residual = 9.40193e-07, No Iterations 95
time step continuity errors : sum local = 4.47241e-13, global = 1.86693e-19, cumulative = -6.67598e-18
ExecutionTime = 0.389216 s  ClockTime = 1 s

Time = 0.011s

Courant Number mean: 0.0500053 max: 0.14104
smoothSolver:  Solving for Ux, Initial residual = 0.00325513, Final residual = 2.3974e-06, No Iterations 1
smoothSolver:  Solving for Uy, Initial residual = 0.00523763, Final residual = 4.62571e-08, No Iterations 2
DICPCG:  Solving for p, Initial residual = 0.00485444, Final residual = 0.000207203, No Iterations 37
time step continuity errors : sum local = 1.09162e-10, global = 3.12707e-20, cumulative = -6.64471e-18
DICPCG:  Solving for p, Initial residual = 0.000402251, Final residual = 8.56483e-07, No Iterations 97
time step continuity errors : sum local = 4.11579e-13, global = 1.1737e-19, cumulative = -6.52734e-18
ExecutionTime = 0.396136 s  ClockTime = 1 s

Time = 0.01125s

Courant Number mean: 0.0500055 max: 0.140994
smoothSolver:  Solving for Ux, Initial residual = 0.00318705, Final residual = 2.34048e-06, No Iterations 1
smoothSolver:  Solving for Uy, Initial residual = 0.00512181, Final residual = 4.51357e-08, No Iterations 2
DICPCG:  Solving for p, Initial residual = 0.00756936, Final residual = 0.000323354, No Iterations 37
time step continuity errors : sum local = 1.72624e-10, global = 2.65288e-19, cumulative = -6.26205e-18
DICPCG:  Solving for p, Initial residual = 0.000620868, Final residual = 9.60371e-07, No Iterations 98
time step continuity errors : sum local = 4.65337e-13, global = -8.32551e-20, cumulative = -6.34531e-18
ExecutionTime = 0.403679 s  ClockTime = 1 s

Time = 0.0115s

Courant Number mean: 0.0500058 max: 0.140958
smoothSolver:  Solving for Ux, Initial residual = 0.00312678, Final residual = 2.29042e-06, No Iterations 1
smoothSolver:  Solving for Uy, Initial residual = 0.00501992, Final residual = 4.41178e-08, No Iterations 2
DICPCG:  Solving for p, Initial residual = 0.00589941, Final residual = 0.000289219, No Iterations 84
time step continuity errors : sum local = 1.40925e-10, global = -1.52365e-19, cumulative = -6.49767e-18
DICPCG:  Solving for p, Initial residual = 0.000508384, Final residual = 8.5677e-07, No Iterations 98
time step continuity errors : sum local = 4.25728e-13, global = -3.15756e-19, cumulative = -6.81343e-18
ExecutionTime = 0.412813 s  ClockTime = 1 s

Time = 0.01175s

Courant Number mean: 0.0500061 max: 0.140933
smoothSolver:  Solving for Ux, Initial residual = 0.00309379, Final residual = 2.26271e-06, No Iterations 1
smoothSolver:  Solving for Uy, Initial residual = 0.0049666, Final residual = 4.34709e-08, No Iterations 2
DICPCG:  Solving for p, Initial residual = 0.00718867, Final residual = 0.000337243, No Iterations 85
time step continuity errors : sum local = 1.67196e-10, global = -5.66928e-19, cumulative = -7.38036e-18
DICPCG:  Solving for p, Initial residual = 0.000583357, Final residual = 7.4126e-07, No Iterations 87
time step continuity errors : sum local = 3.77097e-13, global = -3.25489e-19, cumulative = -7.70585e-18
ExecutionTime = 0.421124 s  ClockTime = 1 s

Time = 0.012s

Courant Number mean: 0.0500064 max: 0.140919
smoothSolver:  Solving for Ux, Initial residual = 0.00307938, Final residual = 2.25095e-06, No Iterations 1
smoothSolver:  Solving for Uy, Initial residual = 0.00495593, Final residual = 4.31334e-08, No Iterations 2
DICPCG:  Solving for p, Initial residual = 0.00641457, Final residual = 0.000249839, No Iterations 86
time step continuity errors : sum local = 1.27293e-10, global = 3.71027e-19, cumulative = -7.33482e-18
DICPCG:  Solving for p, Initial residual = 0.000472554, Final residual = 7.86566e-07, No Iterations 99
time step continuity errors : sum local = 3.82074e-13, global = 1.67031e-19, cumulative = -7.16779e-18
ExecutionTime = 0.429763 s  ClockTime = 1 s

Time = 0.01225s

Courant Number mean: 0.0500067 max: 0.140914
smoothSolver:  Solving for Ux, Initial residual = 0.00292224, Final residual = 2.12542e-06, No Iterations 1
smoothSolver:  Solving for Uy, Initial residual = 0.00465285, Final residual = 4.07996e-08, No Iterations 2
DICPCG:  Solving for p, Initial residual = 0.00890143, Final residual = 0.000407809, No Iterations 82
time step continuity errors : sum local = 1.99788e-10, global = 2.26382e-19, cumulative = -6.9414e-18
DICPCG:  Solving for p, Initial residual = 0.00069512, Final residual = 9.10398e-07, No Iterations 101
time step continuity errors : sum local = 4.35788e-13, global = -5.27225e-20, cumulative = -6.99413e-18
ExecutionTime = 0.438307 s  ClockTime = 1 s

Time = 0.0125s

Courant Number mean: 0.050007 max: 0.140916
smoothSolver:  Solving for Ux, Initial residual = 0.00282047, Final residual = 2.04469e-06, No Iterations 1
smoothSolver:  Solving for Uy, Initial residual = 0.00445175, Final residual = 3.92718e-08, No Iterations 2
DICPCG:  Solving for p, Initial residual = 0.00602199, Final residual = 0.000266613, No Iterations 84
time step continuity errors : sum local = 1.2775e-10, global = 4.42824e-20, cumulative = -6.94984e-18
DICPCG:  Solving for p, Initial residual = 0.000495892, Final residual = 7.48553e-07, No Iterations 101
time step continuity errors : sum local = 3.6303e-13, global = -8.63004e-21, cumulative = -6.95847e-18
ExecutionTime = 0.447001 s  ClockTime = 1 s

Time = 0.01275s

Courant Number mean: 0.0500072 max: 0.14093
smoothSolver:  Solving for Ux, Initial residual = 0.00278425, Final residual = 2.01594e-06, No Iterations 1
smoothSolver:  Solving for Uy, Initial residual = 0.00439433, Final residual = 3.8862e-08, No Iterations 2
DICPCG:  Solving for p, Initial residual = 0.00629597, Final residual = 0.000311529, No Iterations 47
time step continuity errors : sum local = 1.83393e-10, global = 1.59332e-19, cumulative = -6.79914e-18
DICPCG:  Solving for p, Initial residual = 0.00060572, Final residual = 9.6531e-07, No Iterations 97
time step continuity errors : sum local = 4.66306e-13, global = -2.38552e-19, cumulative = -7.0377e-18
ExecutionTime = 0.453974 s  ClockTime = 1 s

Time = 0.013s

Courant Number mean: 0.0500075 max: 0.140955
smoothSolver:  Solving for Ux, Initial residual = 0.00275891, Final residual = 1.99574e-06, No Iterations 1
smoothSolver:  Solving for Uy, Initial residual = 0.00436768, Final residual = 3.85596e-08, No Iterations 2
DICPCG:  Solving for p, Initial residual = 0.00696702, Final residual = 0.00034777, No Iterations 90
time step continuity errors : sum local = 1.70865e-10, global = 1.73606e-20, cumulative = -7.02033e-18
DICPCG:  Solving for p, Initial residual = 0.000723881, Final residual = 7.9747e-07, No Iterations 102
time step continuity errors : sum local = 3.61303e-13, global = -4.81208e-19, cumulative = -7.50154e-18
ExecutionTime = 0.462976 s  ClockTime = 1 s

Time = 0.01325s

Courant Number mean: 0.0500078 max: 0.140982
smoothSolver:  Solving for Ux, Initial residual = 0.00258986, Final residual = 1.86012e-06, No Iterations 1
smoothSolver:  Solving for Uy, Initial residual = 0.00405221, Final residual = 3.58421e-08, No Iterations 2
DICPCG:  Solving for p, Initial residual = 0.00636285, Final residual = 0.000309133, No Iterations 92
time step continuity errors : sum local = 1.41387e-10, global = 1.41377e-19, cumulative = -7.36017e-18
DICPCG:  Solving for p, Initial residual = 0.000657303, Final residual = 8.18743e-07, No Iterations 102
time step continuity errors : sum local = 3.42787e-13, global = -1.43471e-19, cumulative = -7.50364e-18
ExecutionTime = 0.471961 s  ClockTime = 1 s

Time = 0.0135s

Courant Number mean: 0.0500079 max: 0.141011
smoothSolver:  Solving for Ux, Initial residual = 0.00240778, Final residual = 1.71422e-06, No Iterations 1
smoothSolver:  Solving for Uy, Initial residual = 0.00370067, Final residual = 9.77592e-06, No Iterations 1
DICPCG:  Solving for p, Initial residual = 0.00618483, Final residual = 0.000281071, No Iterations 91
time step continuity errors : sum local = 1.18162e-10, global = -4.2489e-19, cumulative = -7.92853e-18
DICPCG:  Solving for p, Initial residual = 0.000582905, Final residual = 8.09312e-07, No Iterations 101
time step continuity errors : sum local = 3.19947e-13, global = -1.97756e-19, cumulative = -8.12628e-18
ExecutionTime = 0.480809 s  ClockTime = 1 s

Time = 0.01375s

Courant Number mean: 0.0500081 max: 0.141044
smoothSolver:  Solving for Ux, Initial residual = 0.00228096, Final residual = 1.61263e-06, No Iterations 1
smoothSolver:  Solving for Uy, Initial residual = 0.00345411, Final residual = 9.1656e-06, No Iterations 1
DICPCG:  Solving for p, Initial residual = 0.00613121, Final residual = 0.000274675, No Iterations 90
time step continuity errors : sum local = 1.08967e-10, global = -4.44283e-19, cumulative = -8.57057e-18
DICPCG:  Solving for p, Initial residual = 0.000538053, Final residual = 8.45677e-07, No Iterations 100
time step continuity errors : sum local = 3.18477e-13, global = -1.96851e-21, cumulative = -8.57253e-18
ExecutionTime = 0.489595 s  ClockTime = 1 s

Time = 0.014s

Courant Number mean: 0.0500082 max: 0.14108
smoothSolver:  Solving for Ux, Initial residual = 0.00217899, Final residual = 1.53117e-06, No Iterations 1
smoothSolver:  Solving for Uy, Initial residual = 0.00325958, Final residual = 8.68172e-06, No Iterations 1
DICPCG:  Solving for p, Initial residual = 0.00601526, Final residual = 0.000257866, No Iterations 90
time step continuity errors : sum local = 9.7903e-11, global = 3.25125e-19, cumulative = -8.24741e-18
DICPCG:  Solving for p, Initial residual = 0.000509982, Final residual = 9.24406e-07, No Iterations 99
time step continuity errors : sum local = 3.34693e-13, global = -1.83831e-19, cumulative = -8.43124e-18
ExecutionTime = 0.498538 s  ClockTime = 1 s

Time = 0.01425s

Courant Number mean: 0.0500082 max: 0.141119
smoothSolver:  Solving for Ux, Initial residual = 0.00208688, Final residual = 1.45788e-06, No Iterations 1
smoothSolver:  Solving for Uy, Initial residual = 0.00308959, Final residual = 8.25076e-06, No Iterations 1
DICPCG:  Solving for p, Initial residual = 0.00848378, Final residual = 0.000411608, No Iterations 88
time step continuity errors : sum local = 1.50166e-10, global = 4.98761e-20, cumulative = -8.38136e-18
DICPCG:  Solving for p, Initial residual = 0.000742331, Final residual = 6.97977e-07, No Iterations 100
time step continuity errors : sum local = 2.41939e-13, global = 7.87623e-21, cumulative = -8.37349e-18
ExecutionTime = 0.507571 s  ClockTime = 1 s

Time = 0.0145s

Courant Number mean: 0.0500083 max: 0.141161
smoothSolver:  Solving for Ux, Initial residual = 0.0019909, Final residual = 1.38294e-06, No Iterations 1
smoothSolver:  Solving for Uy, Initial residual = 0.00291389, Final residual = 7.80734e-06, No Iterations 1
DICPCG:  Solving for p, Initial residual = 0.00902589, Final residual = 0.000392998, No Iterations 91
time step continuity errors : sum local = 1.36718e-10, global = -2.66329e-19, cumulative = -8.63982e-18
DICPCG:  Solving for p, Initial residual = 0.000820995, Final residual = 8.67854e-07, No Iterations 100
time step continuity errors : sum local = 2.71781e-13, global = 4.03915e-20, cumulative = -8.59943e-18
ExecutionTime = 0.516444 s  ClockTime = 1 s

Time = 0.01475s

Courant Number mean: 0.0500083 max: 0.141204
smoothSolver:  Solving for Ux, Initial residual = 0.00185164, Final residual = 1.27455e-06, No Iterations 1
smoothSolver:  Solving for Uy, Initial residual = 0.00265831, Final residual = 7.19917e-06, No Iterations 1
DICPCG:  Solving for p, Initial residual = 0.00804568, Final residual = 0.000369135, No Iterations 40
time step continuity errors : sum local = 1.29286e-10, global = 3.21173e-19, cumulative = -8.27825e-18
DICPCG:  Solving for p, Initial residual = 0.000611518, Final residual = 9.10372e-07, No Iterations 99
time step continuity errors : sum local = 2.84393e-13, global = 3.73591e-19, cumulative = -7.90466e-18
ExecutionTime = 0.523568 s  ClockTime = 1 s

Time = 0.015s

Courant Number mean: 0.0500083 max: 0.141249
smoothSolver:  Solving for Ux, Initial residual = 0.00182738, Final residual = 1.25419e-06, No Iterations 1
smoothSolver:  Solving for Uy, Initial residual = 0.00261659, Final residual = 7.06152e-06, No Iterations 1
DICPCG:  Solving for p, Initial residual = 0.00674233, Final residual = 0.000316166, No Iterations 82
time step continuity errors : sum local = 1.00047e-10, global = 1.94677e-19, cumulative = -7.70998e-18
DICPCG:  Solving for p, Initial residual = 0.000539586, Final residual = 7.20579e-07, No Iterations 100
time step continuity errors : sum local = 2.31275e-13, global = -3.66567e-19, cumulative = -8.07655e-18
ExecutionTime = 0.532037 s  ClockTime = 1 s

Time = 0.01525s

Courant Number mean: 0.0500083 max: 0.141294
smoothSolver:  Solving for Ux, Initial residual = 0.00181756, Final residual = 1.24552e-06, No Iterations 1
smoothSolver:  Solving for Uy, Initial residual = 0.00261397, Final residual = 7.00981e-06, No Iterations 1
DICPCG:  Solving for p, Initial residual = 0.00589254, Final residual = 0.00029386, No Iterations 13
time step continuity errors : sum local = 9.47467e-11, global = -2.79684e-19, cumulative = -8.35624e-18
DICPCG:  Solving for p, Initial residual = 0.000474822, Final residual = 9.67239e-07, No Iterations 99
time step continuity errors : sum local = 3.11466e-13, global = -1.66821e-19, cumulative = -8.52306e-18
ExecutionTime = 0.537693 s  ClockTime = 1 s

Time = 0.0155s

Courant Number mean: 0.0500083 max: 0.141339
smoothSolver:  Solving for Ux, Initial residual = 0.00178882, Final residual = 1.22283e-06, No Iterations 1
smoothSolver:  Solving for Uy, Initial residual = 0.00258171, Final residual = 6.89505e-06, No Iterations 1
DICPCG:  Solving for p, Initial residual = 0.00581343, Final residual = 0.000286658, No Iterations 43
time step continuity errors : sum local = 1.04821e-10, global = 1.11856e-19, cumulative = -8.4112e-18
DICPCG:  Solving for p, Initial residual = 0.000495932, Final residual = 9.95832e-07, No Iterations 99
time step continuity errors : sum local = 3.20997e-13, global = -3.74742e-19, cumulative = -8.78594e-18
ExecutionTime = 0.545081 s  ClockTime = 1 s

Time = 0.01575s

Courant Number mean: 0.0500083 max: 0.141383
smoothSolver:  Solving for Ux, Initial residual = 0.00175227, Final residual = 1.1943e-06, No Iterations 1
smoothSolver:  Solving for Uy, Initial residual = 0.00253489, Final residual = 6.75547e-06, No Iterations 1
DICPCG:  Solving for p, Initial residual = 0.00579362, Final residual = 0.000283263, No Iterations 83
time step continuity errors : sum local = 9.12241e-11, global = 1.26844e-19, cumulative = -8.6591e-18
DICPCG:  Solving for p, Initial residual = 0.000491013, Final residual = 9.18975e-07, No Iterations 93
time step continuity errors : sum local = 2.92327e-13, global = -2.29899e-19, cumulative = -8.889e-18
ExecutionTime = 0.553589 s  ClockTime = 1 s

Time = 0.016s

Courant Number mean: 0.0500083 max: 0.141425
smoothSolver:  Solving for Ux, Initial residual = 0.00171371, Final residual = 1.16386e-06, No Iterations 1
smoothSolver:  Solving for Uy, Initial residual = 0.00248525, Final residual = 6.61685e-06, No Iterations 1
DICPCG:  Solving for p, Initial residual = 0.0056767, Final residual = 0.000280842, No Iterations 83
time step continuity errors : sum local = 8.98069e-11, global = -4.49428e-19, cumulative = -9.33843e-18
DICPCG:  Solving for p, Initial residual = 0.000485885, Final residual = 8.95971e-07, No Iterations 96
time step continuity errors : sum local = 2.834e-13, global = -8.04404e-20, cumulative = -9.41887e-18
ExecutionTime = 0.562237 s  ClockTime = 1 s

Time = 0.01625s

Courant Number mean: 0.0500082 max: 0.141464
smoothSolver:  Solving for Ux, Initial residual = 0.00167625, Final residual = 1.13436e-06, No Iterations 1
smoothSolver:  Solving for Uy, Initial residual = 0.00244245, Final residual = 6.50827e-06, No Iterations 1
DICPCG:  Solving for p, Initial residual = 0.00561505, Final residual = 0.000262976, No Iterations 45
time step continuity errors : sum local = 9.81248e-11, global = -2.56758e-20, cumulative = -9.44454e-18
DICPCG:  Solving for p, Initial residual = 0.000475849, Final residual = 7.82988e-07, No Iterations 99
time step continuity errors : sum local = 2.47088e-13, global = -1.19545e-19, cumulative = -9.56409e-18
ExecutionTime = 0.569445 s  ClockTime = 1 s

Time = 0.0165s

Courant Number mean: 0.0500082 max: 0.1415
smoothSolver:  Solving for Ux, Initial residual = 0.00164166, Final residual = 1.10693e-06, No Iterations 1
smoothSolver:  Solving for Uy, Initial residual = 0.00240803, Final residual = 6.40651e-06, No Iterations 1
DICPCG:  Solving for p, Initial residual = 0.00560254, Final residual = 0.000264416, No Iterations 40
time step continuity errors : sum local = 9.34134e-11, global = -5.38995e-19, cumulative = -1.01031e-17
DICPCG:  Solving for p, Initial residual = 0.00047327, Final residual = 8.24706e-07, No Iterations 98
time step continuity errors : sum local = 2.59392e-13, global = -2.36717e-19, cumulative = -1.03398e-17
ExecutionTime = 0.576497 s  ClockTime = 1 s

Time = 0.01675s

Courant Number mean: 0.0500082 max: 0.141531
smoothSolver:  Solving for Ux, Initial residual = 0.00161073, Final residual = 1.08257e-06, No Iterations 1
smoothSolver:  Solving for Uy, Initial residual = 0.0023783, Final residual = 6.31556e-06, No Iterations 1
DICPCG:  Solving for p, Initial residual = 0.0059815, Final residual = 0.000280876, No Iterations 31
time step continuity errors : sum local = 9.03634e-11, global = -4.73037e-19, cumulative = -1.08128e-17
DICPCG:  Solving for p, Initial residual = 0.000496941, Final residual = 8.56122e-07, No Iterations 95
time step continuity errors : sum local = 2.69965e-13, global = 8.53818e-20, cumulative = -1.07275e-17
ExecutionTime = 0.582733 s  ClockTime = 1 s

Time = 0.017s

Courant Number mean: 0.0500082 max: 0.141559
smoothSolver:  Solving for Ux, Initial residual = 0.00158418, Final residual = 1.06163e-06, No Iterations 1
smoothSolver:  Solving for Uy, Initial residual = 0.00235447, Final residual = 6.23968e-06, No Iterations 1
DICPCG:  Solving for p, Initial residual = 0.00615929, Final residual = 0.000282018, No Iterations 9
time step continuity errors : sum local = 8.82978e-11, global = -2.70833e-19, cumulative = -1.09983e-17
DICPCG:  Solving for p, Initial residual = 0.000466055, Final residual = 8.52244e-07, No Iterations 98
time step continuity errors : sum local = 2.67266e-13, global = 2.979e-19, cumulative = -1.07004e-17
ExecutionTime = 0.588665 s  ClockTime = 1 s

Time = 0.01725s

Courant Number mean: 0.0500081 max: 0.141581
smoothSolver:  Solving for Ux, Initial residual = 0.00156247, Final residual = 1.04481e-06, No Iterations 1
smoothSolver:  Solving for Uy, Initial residual = 0.00233822, Final residual = 6.17695e-06, No Iterations 1
DICPCG:  Solving for p, Initial residual = 0.00709708, Final residual = 0.000287334, No Iterations 38
time step continuity errors : sum local = 1.0573e-10, global = 7.1194e-19, cumulative = -9.98845e-18
DICPCG:  Solving for p, Initial residual = 0.000505668, Final residual = 8.0928e-07, No Iterations 98
time step continuity errors : sum local = 2.56083e-13, global = 9.05287e-20, cumulative = -9.89792e-18
ExecutionTime = 0.595352 s  ClockTime = 1 s

Time = 0.0175s

Courant Number mean: 0.0500081 max: 0.141598
smoothSolver:  Solving for Ux, Initial residual = 0.00154641, Final residual = 1.03204e-06, No Iterations 1
smoothSolver:  Solving for Uy, Initial residual = 0.00232968, Final residual = 6.13141e-06, No Iterations 1
DICPCG:  Solving for p, Initial residual = 0.00848571, Final residual = 0.000422011, No Iterations 42
time step continuity errors : sum local = 1.65985e-10, global = -6.35294e-19, cumulative = -1.05332e-17
DICPCG:  Solving for p, Initial residual = 0.000729369, Final residual = 8.10098e-07, No Iterations 100
time step continuity errors : sum local = 2.61012e-13, global = 1.84375e-19, cumulative = -1.03488e-17
ExecutionTime = 0.602216 s  ClockTime = 1 s

Time = 0.01775s

Courant Number mean: 0.0500081 max: 0.14161
smoothSolver:  Solving for Ux, Initial residual = 0.0015379, Final residual = 1.0247e-06, No Iterations 1
smoothSolver:  Solving for Uy, Initial residual = 0.0023336, Final residual = 6.11622e-06, No Iterations 1
DICPCG:  Solving for p, Initial residual = 0.0102034, Final residual = 0.000443791, No Iterations 85
time step continuity errors : sum local = 1.45191e-10, global = 3.18e-19, cumulative = -1.00308e-17
DICPCG:  Solving for p, Initial residual = 0.000755434, Final residual = 9.77103e-07, No Iterations 97
time step continuity errors : sum local = 3.32072e-13, global = -1.56632e-19, cumulative = -1.01875e-17
ExecutionTime = 0.612368 s  ClockTime = 1 s

Time = 0.018s

Courant Number mean: 0.0500081 max: 0.141616
smoothSolver:  Solving for Ux, Initial residual = 0.00154233, Final residual = 1.02697e-06, No Iterations 1
smoothSolver:  Solving for Uy, Initial residual = 0.00235986, Final residual = 6.15296e-06, No Iterations 1
DICPCG:  Solving for p, Initial residual = 0.0120571, Final residual = 0.00059471, No Iterations 86
time step continuity errors : sum local = 2.02871e-10, global = 1.1366e-19, cumulative = -1.00738e-17
DICPCG:  Solving for p, Initial residual = 0.000997522, Final residual = 8.20217e-07, No Iterations 100
time step continuity errors : sum local = 3.0289e-13, global = 7.79026e-20, cumulative = -9.9959e-18
ExecutionTime = 0.621714 s  ClockTime = 1 s

Time = 0.01825s

Courant Number mean: 0.0500082 max: 0.141618
smoothSolver:  Solving for Ux, Initial residual = 0.00158955, Final residual = 1.06245e-06, No Iterations 1
smoothSolver:  Solving for Uy, Initial residual = 0.00246778, Final residual = 6.36994e-06, No Iterations 1
DICPCG:  Solving for p, Initial residual = 0.011717, Final residual = 0.000465636, No Iterations 83
time step continuity errors : sum local = 1.71286e-10, global = -2.14773e-19, cumulative = -1.02107e-17
DICPCG:  Solving for p, Initial residual = 0.000940913, Final residual = 9.34146e-07, No Iterations 98
time step continuity errors : sum local = 3.51693e-13, global = -7.39336e-20, cumulative = -1.02846e-17
ExecutionTime = 0.630405 s  ClockTime = 1 s

Time = 0.0185s

Courant Number mean: 0.0500083 max: 0.141614
smoothSolver:  Solving for Ux, Initial residual = 0.00159679, Final residual = 1.06778e-06, No Iterations 1
smoothSolver:  Solving for Uy, Initial residual = 0.00251094, Final residual = 6.42924e-06, No Iterations 1
DICPCG:  Solving for p, Initial residual = 0.00744555, Final residual = 0.000369923, No Iterations 86
time step continuity errors : sum local = 1.40154e-10, global = -3.97623e-19, cumulative = -1.06822e-17
DICPCG:  Solving for p, Initial residual = 0.000636632, Final residual = 7.83855e-07, No Iterations 98
time step continuity errors : sum local = 2.75782e-13, global = 6.83269e-20, cumulative = -1.06139e-17
ExecutionTime = 0.639123 s  ClockTime = 1 s

Time = 0.01875s

Courant Number mean: 0.0500083 max: 0.141602
smoothSolver:  Solving for Ux, Initial residual = 0.00151317, Final residual = 1.00388e-06, No Iterations 1
smoothSolver:  Solving for Uy, Initial residual = 0.00237747, Final residual = 6.13146e-06, No Iterations 1
DICPCG:  Solving for p, Initial residual = 0.00695112, Final residual = 0.000284914, No Iterations 85
time step continuity errors : sum local = 1.00777e-10, global = -1.53368e-19, cumulative = -1.07673e-17
DICPCG:  Solving for p, Initial residual = 0.000535478, Final residual = 7.66581e-07, No Iterations 98
time step continuity errors : sum local = 2.62844e-13, global = -1.73627e-19, cumulative = -1.09409e-17
ExecutionTime = 0.647817 s  ClockTime = 1 s

Time = 0.019s

Courant Number mean: 0.0500084 max: 0.141585
smoothSolver:  Solving for Ux, Initial residual = 0.00147097, Final residual = 9.72266e-07, No Iterations 1
smoothSolver:  Solving for Uy, Initial residual = 0.00230883, Final residual = 5.97769e-06, No Iterations 1
DICPCG:  Solving for p, Initial residual = 0.00593943, Final residual = 0.000288655, No Iterations 10
time step continuity errors : sum local = 9.90946e-11, global = -1.22614e-19, cumulative = -1.10635e-17
DICPCG:  Solving for p, Initial residual = 0.000469138, Final residual = 8.07922e-07, No Iterations 100
time step continuity errors : sum local = 2.7775e-13, global = -1.23359e-19, cumulative = -1.11869e-17
ExecutionTime = 0.653534 s  ClockTime = 1 s

Time = 0.01925s

Courant Number mean: 0.0500084 max: 0.141563
smoothSolver:  Solving for Ux, Initial residual = 0.00144984, Final residual = 9.56544e-07, No Iterations 1
smoothSolver:  Solving for Uy, Initial residual = 0.00227852, Final residual = 5.90273e-06, No Iterations 1
DICPCG:  Solving for p, Initial residual = 0.00603177, Final residual = 0.000295777, No Iterations 45
time step continuity errors : sum local = 1.22635e-10, global = 1.38788e-19, cumulative = -1.10481e-17
DICPCG:  Solving for p, Initial residual = 0.000514557, Final residual = 7.23438e-07, No Iterations 100
time step continuity errors : sum local = 2.49315e-13, global = -8.22318e-20, cumulative = -1.11303e-17
ExecutionTime = 0.660749 s  ClockTime = 1 s

Time = 0.0195s

Courant Number mean: 0.0500085 max: 0.141536
smoothSolver:  Solving for Ux, Initial residual = 0.00144005, Final residual = 9.49341e-07, No Iterations 1
smoothSolver:  Solving for Uy, Initial residual = 0.0022722, Final residual = 5.879e-06, No Iterations 1
DICPCG:  Solving for p, Initial residual = 0.00620031, Final residual = 0.000291235, No Iterations 87
time step continuity errors : sum local = 1.01287e-10, global = -3.34781e-19, cumulative = -1.14651e-17
DICPCG:  Solving for p, Initial residual = 0.000512916, Final residual = 8.8292e-07, No Iterations 99
time step continuity errors : sum local = 3.14411e-13, global = -3.90528e-20, cumulative = -1.15042e-17
ExecutionTime = 0.669582 s  ClockTime = 1 s

Time = 0.01975s

Courant Number mean: 0.0500085 max: 0.141504
smoothSolver:  Solving for Ux, Initial residual = 0.00143687, Final residual = 9.47111e-07, No Iterations 1
smoothSolver:  Solving for Uy, Initial residual = 0.00228207, Final residual = 5.89466e-06, No Iterations 1
DICPCG:  Solving for p, Initial residual = 0.00652915, Final residual = 0.000269262, No Iterations 88
time step continuity errors : sum local = 9.60771e-11, global = -3.59475e-19, cumulative = -1.18636e-17
DICPCG:  Solving for p, Initial residual = 0.000502832, Final residual = 9.70861e-07, No Iterations 99
time step continuity errors : sum local = 3.54761e-13, global = -2.86946e-19, cumulative = -1.21506e-17
ExecutionTime = 0.67842 s  ClockTime = 1 s

Time = 0.02s

Courant Number mean: 0.0500086 max: 0.141469
smoothSolver:  Solving for Ux, Initial residual = 0.00143801, Final residual = 9.47949e-07, No Iterations 1
smoothSolver:  Solving for Uy, Initial residual = 0.00230503, Final residual = 5.94586e-06, No Iterations 1
DICPCG:  Solving for p, Initial residual = 0.00791825, Final residual = 0.000361241, No Iterations 87
time step continuity errors : sum local = 1.32104e-10, global = 9.54009e-20, cumulative = -1.20552e-17
DICPCG:  Solving for p, Initial residual = 0.000626335, Final residual = 8.57274e-07, No Iterations 100
time step continuity errors : sum local = 3.22843e-13, global = -9.78652e-20, cumulative = -1.2153e-17
ExecutionTime = 0.687299 s  ClockTime = 1 s

Time = 0.02025s

Courant Number mean: 0.0500087 max: 0.141431
smoothSolver:  Solving for Ux, Initial residual = 0.00144247, Final residual = 9.51354e-07, No Iterations 1
smoothSolver:  Solving for Uy, Initial residual = 0.00234037, Final residual = 6.01463e-06, No Iterations 1
DICPCG:  Solving for p, Initial residual = 0.00859622, Final residual = 0.000428373, No Iterations 87
time step continuity errors : sum local = 1.61547e-10, global = -5.62615e-19, cumulative = -1.27157e-17
DICPCG:  Solving for p, Initial residual = 0.000757071, Final residual = 7.77923e-07, No Iterations 101
time step continuity errors : sum local = 3.03699e-13, global = -5.07337e-19, cumulative = -1.3223e-17
ExecutionTime = 0.696229 s  ClockTime = 1 s

Time = 0.0205s

Courant Number mean: 0.0500088 max: 0.141392
smoothSolver:  Solving for Ux, Initial residual = 0.00145043, Final residual = 9.57156e-07, No Iterations 1
smoothSolver:  Solving for Uy, Initial residual = 0.00238201, Final residual = 6.09978e-06, No Iterations 1
DICPCG:  Solving for p, Initial residual = 0.00869338, Final residual = 0.000369543, No Iterations 88
time step continuity errors : sum local = 1.44849e-10, global = 4.57128e-20, cumulative = -1.31773e-17
DICPCG:  Solving for p, Initial residual = 0.000679904, Final residual = 8.14264e-07, No Iterations 101
time step continuity errors : sum local = 3.31931e-13, global = 3.43838e-19, cumulative = -1.28334e-17
ExecutionTime = 0.705219 s  ClockTime = 1 s

Time = 0.02075s

Courant Number mean: 0.0500089 max: 0.141351
smoothSolver:  Solving for Ux, Initial residual = 0.00146369, Final residual = 9.6703e-07, No Iterations 1
smoothSolver:  Solving for Uy, Initial residual = 0.00243158, Final residual = 6.20554e-06, No Iterations 1
DICPCG:  Solving for p, Initial residual = 0.0101406, Final residual = 0.000444258, No Iterations 88
time step continuity errors : sum local = 1.80803e-10, global = 2.26503e-19, cumulative = -1.26069e-17
DICPCG:  Solving for p, Initial residual = 0.000744816, Final residual = 9.29152e-07, No Iterations 100
time step continuity errors : sum local = 3.98557e-13, global = 1.09638e-19, cumulative = -1.24973e-17
ExecutionTime = 0.714391 s  ClockTime = 1 s

Time = 0.021s

Courant Number mean: 0.050009 max: 0.14131
smoothSolver:  Solving for Ux, Initial residual = 0.00149198, Final residual = 9.88358e-07, No Iterations 1
smoothSolver:  Solving for Uy, Initial residual = 0.00251075, Final residual = 6.38449e-06, No Iterations 1
DICPCG:  Solving for p, Initial residual = 0.00729975, Final residual = 0.000358629, No Iterations 42
time step continuity errors : sum local = 1.83756e-10, global = 3.83975e-19, cumulative = -1.21133e-17
DICPCG:  Solving for p, Initial residual = 0.000598477, Final residual = 9.72932e-07, No Iterations 96
time step continuity errors : sum local = 4.15721e-13, global = -4.80945e-19, cumulative = -1.25943e-17
ExecutionTime = 0.721308 s  ClockTime = 1 s

Time = 0.02125s

Courant Number mean: 0.0500092 max: 0.141268
smoothSolver:  Solving for Ux, Initial residual = 0.00148688, Final residual = 9.84246e-07, No Iterations 1
smoothSolver:  Solving for Uy, Initial residual = 0.00252618, Final residual = 6.40264e-06, No Iterations 1
DICPCG:  Solving for p, Initial residual = 0.00774212, Final residual = 0.000364354, No Iterations 82
time step continuity errors : sum local = 1.58737e-10, global = 1.34056e-19, cumulative = -1.24602e-17
DICPCG:  Solving for p, Initial residual = 0.000638771, Final residual = 7.51737e-07, No Iterations 100
time step continuity errors : sum local = 3.20475e-13, global = -2.7244e-19, cumulative = -1.27327e-17
ExecutionTime = 0.730195 s  ClockTime = 1 s

Time = 0.0215s

Courant Number mean: 0.0500094 max: 0.141223
smoothSolver:  Solving for Ux, Initial residual = 0.00145354, Final residual = 9.58429e-07, No Iterations 1
smoothSolver:  Solving for Uy, Initial residual = 0.00247684, Final residual = 6.28312e-06, No Iterations 1
DICPCG:  Solving for p, Initial residual = 0.0098471, Final residual = 0.000419114, No Iterations 83
time step continuity errors : sum local = 1.80395e-10, global = 5.73891e-19, cumulative = -1.21588e-17
DICPCG:  Solving for p, Initial residual = 0.000779194, Final residual = 9.48822e-07, No Iterations 99
time step continuity errors : sum local = 3.94748e-13, global = 4.46113e-20, cumulative = -1.21142e-17
ExecutionTime = 0.73904 s  ClockTime = 1 s

Time = 0.02175s

Courant Number mean: 0.0500095 max: 0.141177
smoothSolver:  Solving for Ux, Initial residual = 0.00140534, Final residual = 9.2108e-07, No Iterations 1
smoothSolver:  Solving for Uy, Initial residual = 0.00239052, Final residual = 6.08225e-06, No Iterations 1
DICPCG:  Solving for p, Initial residual = 0.0110345, Final residual = 0.000505874, No Iterations 85
time step continuity errors : sum local = 2.09908e-10, global = -2.99818e-19, cumulative = -1.2414e-17
DICPCG:  Solving for p, Initial residual = 0.000914885, Final residual = 8.78121e-07, No Iterations 101
time step continuity errors : sum local = 3.35459e-13, global = 7.14553e-20, cumulative = -1.23425e-17
ExecutionTime = 0.748044 s  ClockTime = 1 s

Time = 0.022s

Courant Number mean: 0.0500096 max: 0.141131
smoothSolver:  Solving for Ux, Initial residual = 0.00132282, Final residual = 8.58108e-07, No Iterations 1
smoothSolver:  Solving for Uy, Initial residual = 0.00223613, Final residual = 5.75721e-06, No Iterations 1
DICPCG:  Solving for p, Initial residual = 0.0123338, Final residual = 0.000496908, No Iterations 85
time step continuity errors : sum local = 1.90094e-10, global = -4.20047e-19, cumulative = -1.27626e-17
DICPCG:  Solving for p, Initial residual = 0.000745567, Final residual = 9.76603e-07, No Iterations 98
time step continuity errors : sum local = 3.99602e-13, global = 9.01916e-20, cumulative = -1.26724e-17
ExecutionTime = 0.756793 s  ClockTime = 1 s

Time = 0.02225s

Courant Number mean: 0.0500098 max: 0.141086
smoothSolver:  Solving for Ux, Initial residual = 0.00136539, Final residual = 8.89704e-07, No Iterations 1
smoothSolver:  Solving for Uy, Initial residual = 0.00231594, Final residual = 5.90426e-06, No Iterations 1
DICPCG:  Solving for p, Initial residual = 0.00855842, Final residual = 0.000347503, No Iterations 87
time step continuity errors : sum local = 1.4204e-10, global = -2.67031e-19, cumulative = -1.29394e-17
DICPCG:  Solving for p, Initial residual = 0.000587337, Final residual = 9.15135e-07, No Iterations 98
time step continuity errors : sum local = 4.00293e-13, global = -2.80598e-19, cumulative = -1.322e-17
ExecutionTime = 0.765639 s  ClockTime = 1 s

Time = 0.0225s

Courant Number mean: 0.0500099 max: 0.141044
smoothSolver:  Solving for Ux, Initial residual = 0.00141327, Final residual = 9.26166e-07, No Iterations 1
smoothSolver:  Solving for Uy, Initial residual = 0.00241854, Final residual = 6.10738e-06, No Iterations 1
DICPCG:  Solving for p, Initial residual = 0.00575308, Final residual = 0.000285252, No Iterations 38
time step continuity errors : sum local = 1.39114e-10, global = -4.33768e-20, cumulative = -1.32634e-17
DICPCG:  Solving for p, Initial residual = 0.000471536, Final residual = 9.87362e-07, No Iterations 94
time step continuity errors : sum local = 4.34146e-13, global = -3.00151e-19, cumulative = -1.35635e-17
ExecutionTime = 0.772259 s  ClockTime = 1 s

Time = 0.02275s

Courant Number mean: 0.0500101 max: 0.141005
smoothSolver:  Solving for Ux, Initial residual = 0.00140103, Final residual = 9.16848e-07, No Iterations 1
smoothSolver:  Solving for Uy, Initial residual = 0.00240732, Final residual = 6.0523e-06, No Iterations 1
DICPCG:  Solving for p, Initial residual = 0.00550997, Final residual = 0.000268381, No Iterations 38
time step continuity errors : sum local = 1.44019e-10, global = -2.64681e-19, cumulative = -1.38282e-17
DICPCG:  Solving for p, Initial residual = 0.000463394, Final residual = 9.53138e-07, No Iterations 98
time step continuity errors : sum local = 4.22097e-13, global = 5.44247e-19, cumulative = -1.3284e-17
ExecutionTime = 0.779038 s  ClockTime = 1 s

Time = 0.023s

Courant Number mean: 0.0500103 max: 0.140969
smoothSolver:  Solving for Ux, Initial residual = 0.00139372, Final residual = 9.11732e-07, No Iterations 1
smoothSolver:  Solving for Uy, Initial residual = 0.00240299, Final residual = 6.02554e-06, No Iterations 1
DICPCG:  Solving for p, Initial residual = 0.00550489, Final residual = 0.000271786, No Iterations 44
time step continuity errors : sum local = 1.51712e-10, global = -4.65134e-20, cumulative = -1.33305e-17
DICPCG:  Solving for p, Initial residual = 0.000477544, Final residual = 6.8151e-07, No Iterations 99
time step continuity errors : sum local = 3.05457e-13, global = -1.14449e-19, cumulative = -1.34449e-17
ExecutionTime = 0.786062 s  ClockTime = 1 s

Time = 0.02325s

Courant Number mean: 0.0500105 max: 0.140938
smoothSolver:  Solving for Ux, Initial residual = 0.00138878, Final residual = 9.0878e-07, No Iterations 1
smoothSolver:  Solving for Uy, Initial residual = 0.00240331, Final residual = 6.01145e-06, No Iterations 1
DICPCG:  Solving for p, Initial residual = 0.0057635, Final residual = 0.000237886, No Iterations 85
time step continuity errors : sum local = 1.07536e-10, global = -1.72524e-19, cumulative = -1.36174e-17
DICPCG:  Solving for p, Initial residual = 0.00047175, Final residual = 9.0747e-07, No Iterations 98
time step continuity errors : sum local = 4.17481e-13, global = -1.65013e-19, cumulative = -1.37825e-17
ExecutionTime = 0.794982 s  ClockTime = 1 s

Time = 0.0235s

Courant Number mean: 0.0500107 max: 0.140911
smoothSolver:  Solving for Ux, Initial residual = 0.00138544, Final residual = 9.0693e-07, No Iterations 1
smoothSolver:  Solving for Uy, Initial residual = 0.00240678, Final residual = 6.00772e-06, No Iterations 1
DICPCG:  Solving for p, Initial residual = 0.00653696, Final residual = 0.000290315, No Iterations 85
time step continuity errors : sum local = 1.33403e-10, global = 1.58398e-20, cumulative = -1.37666e-17
DICPCG:  Solving for p, Initial residual = 0.000562502, Final residual = 8.0262e-07, No Iterations 99
time step continuity errors : sum local = 3.75827e-13, global = -3.7116e-19, cumulative = -1.41378e-17
ExecutionTime = 0.803659 s  ClockTime = 1 s

Time = 0.02375s

Courant Number mean: 0.050011 max: 0.140891
smoothSolver:  Solving for Ux, Initial residual = 0.00138491, Final residual = 9.07152e-07, No Iterations 1
smoothSolver:  Solving for Uy, Initial residual = 0.00241834, Final residual = 6.02534e-06, No Iterations 1
DICPCG:  Solving for p, Initial residual = 0.00547922, Final residual = 0.00024953, No Iterations 88
time step continuity errors : sum local = 1.17177e-10, global = -5.01937e-20, cumulative = -1.4188e-17
DICPCG:  Solving for p, Initial residual = 0.000464577, Final residual = 7.25347e-07, No Iterations 99
time step continuity errors : sum local = 3.51871e-13, global = 2.75737e-19, cumulative = -1.39122e-17
ExecutionTime = 0.812358 s  ClockTime = 1 s

Time = 0.024s

Courant Number mean: 0.0500112 max: 0.140878
smoothSolver:  Solving for Ux, Initial residual = 0.00139737, Final residual = 9.17172e-07, No Iterations 1
smoothSolver:  Solving for Uy, Initial residual = 0.00245819, Final residual = 6.11537e-06, No Iterations 1
DICPCG:  Solving for p, Initial residual = 0.00475789, Final residual = 0.000236812, No Iterations 46
time step continuity errors : sum local = 1.34701e-10, global = -8.87629e-20, cumulative = -1.4001e-17
DICPCG:  Solving for p, Initial residual = 0.000429321, Final residual = 9.51764e-07, No Iterations 97
time step continuity errors : sum local = 4.58887e-13, global = 5.57417e-19, cumulative = -1.34436e-17
ExecutionTime = 0.819282 s  ClockTime = 1 s

Time = 0.02425s

Courant Number mean: 0.0500114 max: 0.14087
smoothSolver:  Solving for Ux, Initial residual = 0.00137489, Final residual = 9.00247e-07, No Iterations 1
smoothSolver:  Solving for Uy, Initial residual = 0.00242852, Final residual = 6.03694e-06, No Iterations 1
DICPCG:  Solving for p, Initial residual = 0.00727985, Final residual = 0.000342362, No Iterations 44
time step continuity errors : sum local = 1.9088e-10, global = -7.74866e-19, cumulative = -1.42184e-17
DICPCG:  Solving for p, Initial residual = 0.000658274, Final residual = 8.58349e-07, No Iterations 101
time step continuity errors : sum local = 4.10191e-13, global = -3.38692e-19, cumulative = -1.45571e-17
ExecutionTime = 0.826287 s  ClockTime = 1 s

Time = 0.0245s

Courant Number mean: 0.0500117 max: 0.140866
smoothSolver:  Solving for Ux, Initial residual = 0.00135269, Final residual = 8.83664e-07, No Iterations 1
smoothSolver:  Solving for Uy, Initial residual = 0.00239489, Final residual = 5.94738e-06, No Iterations 1
DICPCG:  Solving for p, Initial residual = 0.00653943, Final residual = 0.000299481, No Iterations 89
time step continuity errors : sum local = 1.42863e-10, global = -3.79554e-19, cumulative = -1.49367e-17
DICPCG:  Solving for p, Initial residual = 0.00058039, Final residual = 8.80002e-07, No Iterations 99
time step continuity errors : sum local = 3.99163e-13, global = -7.71095e-19, cumulative = -1.57078e-17
ExecutionTime = 0.834952 s  ClockTime = 1 s

Time = 0.02475s

Courant Number mean: 0.0500119 max: 0.140864
smoothSolver:  Solving for Ux, Initial residual = 0.00129394, Final residual = 8.38923e-07, No Iterations 1
smoothSolver:  Solving for Uy, Initial residual = 0.00228259, Final residual = 5.66711e-06, No Iterations 1
DICPCG:  Solving for p, Initial residual = 0.00677129, Final residual = 0.000307006, No Iterations 86
time step continuity errors : sum local = 1.39418e-10, global = 3.51031e-19, cumulative = -1.53568e-17
DICPCG:  Solving for p, Initial residual = 0.000565701, Final residual = 7.96202e-07, No Iterations 94
time step continuity errors : sum local = 3.51919e-13, global = -5.62604e-20, cumulative = -1.5413e-17
ExecutionTime = 0.843346 s  ClockTime = 1 s

Time = 0.025s

Courant Number mean: 0.0500121 max: 0.140866
smoothSolver:  Solving for Ux, Initial residual = 0.00125728, Final residual = 8.11099e-07, No Iterations 1
smoothSolver:  Solving for Uy, Initial residual = 0.00221043, Final residual = 5.48653e-06, No Iterations 1
DICPCG:  Solving for p, Initial residual = 0.00978874, Final residual = 0.000463478, No Iterations 46
time step continuity errors : sum local = 2.46756e-10, global = -3.12173e-19, cumulative = -1.57252e-17
DICPCG:  Solving for p, Initial residual = 0.000808752, Final residual = 7.75896e-07, No Iterations 100
time step continuity errors : sum local = 3.43532e-13, global = 4.28492e-19, cumulative = -1.52967e-17
ExecutionTime = 0.850442 s  ClockTime = 1 s

Time = 0.02525s

Courant Number mean: 0.0500122 max: 0.140872
smoothSolver:  Solving for Ux, Initial residual = 0.00122949, Final residual = 7.90055e-07, No Iterations 1
smoothSolver:  Solving for Uy, Initial residual = 0.00215692, Final residual = 5.34809e-06, No Iterations 1
DICPCG:  Solving for p, Initial residual = 0.0089511, Final residual = 0.000433821, No Iterations 84
time step continuity errors : sum local = 1.89372e-10, global = -3.31436e-19, cumulative = -1.56281e-17
DICPCG:  Solving for p, Initial residual = 0.000786466, Final residual = 9.04074e-07, No Iterations 99
time step continuity errors : sum local = 3.84194e-13, global = 3.65592e-19, cumulative = -1.52625e-17
ExecutionTime = 0.858957 s  ClockTime = 1 s

Time = 0.0255s

Courant Number mean: 0.0500124 max: 0.140883
smoothSolver:  Solving for Ux, Initial residual = 0.00119189, Final residual = 7.61796e-07, No Iterations 1
smoothSolver:  Solving for Uy, Initial residual = 0.00208686, Final residual = 5.17036e-06, No Iterations 1
DICPCG:  Solving for p, Initial residual = 0.00823261, Final residual = 0.000389548, No Iterations 17
time step continuity errors : sum local = 1.75854e-10, global = -2.47749e-19, cumulative = -1.55103e-17
DICPCG:  Solving for p, Initial residual = 0.000636216, Final residual = 8.85015e-07, No Iterations 98
time step continuity errors : sum local = 3.77469e-13, global = -4.00524e-19, cumulative = -1.59108e-17
ExecutionTime = 0.864729 s  ClockTime = 1 s

Time = 0.02575s

Courant Number mean: 0.0500126 max: 0.140898
smoothSolver:  Solving for Ux, Initial residual = 0.00118372, Final residual = 7.55622e-07, No Iterations 1
smoothSolver:  Solving for Uy, Initial residual = 0.00206632, Final residual = 5.10026e-06, No Iterations 1
DICPCG:  Solving for p, Initial residual = 0.00818443, Final residual = 0.000358292, No Iterations 82
time step continuity errors : sum local = 1.53723e-10, global = 3.58083e-20, cumulative = -1.5875e-17
DICPCG:  Solving for p, Initial residual = 0.0006507, Final residual = 8.36439e-07, No Iterations 100
time step continuity errors : sum local = 3.68118e-13, global = -2.76899e-19, cumulative = -1.61519e-17
ExecutionTime = 0.873164 s  ClockTime = 1 s

Time = 0.026s

Courant Number mean: 0.0500128 max: 0.140918
smoothSolver:  Solving for Ux, Initial residual = 0.00118921, Final residual = 7.59809e-07, No Iterations 1
smoothSolver:  Solving for Uy, Initial residual = 0.00206995, Final residual = 5.07331e-06, No Iterations 1
DICPCG:  Solving for p, Initial residual = 0.00931409, Final residual = 0.000420441, No Iterations 82
time step continuity errors : sum local = 1.871e-10, global = 1.78448e-19, cumulative = -1.59735e-17
DICPCG:  Solving for p, Initial residual = 0.000685727, Final residual = 8.19819e-07, No Iterations 100
time step continuity errors : sum local = 3.73097e-13, global = -2.13849e-19, cumulative = -1.61873e-17
ExecutionTime = 0.881628 s  ClockTime = 1 s

Time = 0.02625s

Courant Number mean: 0.050013 max: 0.140942
smoothSolver:  Solving for Ux, Initial residual = 0.00120629, Final residual = 7.73083e-07, No Iterations 1
smoothSolver:  Solving for Uy, Initial residual = 0.00210207, Final residual = 5.08751e-06, No Iterations 1
DICPCG:  Solving for p, Initial residual = 0.0072825, Final residual = 0.000334556, No Iterations 87
time step continuity errors : sum local = 1.52418e-10, global = -1.03445e-19, cumulative = -1.62908e-17
DICPCG:  Solving for p, Initial residual = 0.000614946, Final residual = 7.99967e-07, No Iterations 98
time step continuity errors : sum local = 3.36638e-13, global = -4.33074e-19, cumulative = -1.67238e-17
ExecutionTime = 0.890231 s  ClockTime = 1 s

Time = 0.0265s

Courant Number mean: 0.0500131 max: 0.14097
smoothSolver:  Solving for Ux, Initial residual = 0.00113477, Final residual = 7.1865e-07, No Iterations 1
smoothSolver:  Solving for Uy, Initial residual = 0.00197562, Final residual = 4.81713e-06, No Iterations 1
DICPCG:  Solving for p, Initial residual = 0.00721264, Final residual = 0.000312221, No Iterations 85
time step continuity errors : sum local = 1.32186e-10, global = -2.13177e-19, cumulative = -1.6937e-17
DICPCG:  Solving for p, Initial residual = 0.000585066, Final residual = 9.92909e-07, No Iterations 97
time step continuity errors : sum local = 3.96402e-13, global = -6.39254e-19, cumulative = -1.75763e-17
ExecutionTime = 0.898691 s  ClockTime = 1 s

Time = 0.02675s

Courant Number mean: 0.0500132 max: 0.141
smoothSolver:  Solving for Ux, Initial residual = 0.00108553, Final residual = 6.81862e-07, No Iterations 1
smoothSolver:  Solving for Uy, Initial residual = 0.00188128, Final residual = 4.60477e-06, No Iterations 1
DICPCG:  Solving for p, Initial residual = 0.00724253, Final residual = 0.000344616, No Iterations 84
time step continuity errors : sum local = 1.38059e-10, global = 1.66216e-19, cumulative = -1.741e-17
DICPCG:  Solving for p, Initial residual = 0.000618841, Final residual = 8.3265e-07, No Iterations 99
time step continuity errors : sum local = 3.20237e-13, global = -4.28764e-19, cumulative = -1.78388e-17
ExecutionTime = 0.907366 s  ClockTime = 1 s

Time = 0.027s

Courant Number mean: 0.0500133 max: 0.141033
smoothSolver:  Solving for Ux, Initial residual = 0.00104833, Final residual = 6.54584e-07, No Iterations 1
smoothSolver:  Solving for Uy, Initial residual = 0.00180823, Final residual = 4.43716e-06, No Iterations 1
DICPCG:  Solving for p, Initial residual = 0.00759779, Final residual = 0.000305098, No Iterations 84
time step continuity errors : sum local = 1.17443e-10, global = 1.1548e-19, cumulative = -1.77233e-17
[...]
ExecutionTime = 25.5805 s  ClockTime = 26 s

Time = 0.9935s

Courant Number mean: 0.0500863 max: 0.141348
smoothSolver:  Solving for Ux, Initial residual = 7.84092e-06, Final residual = 7.84092e-06, No Iterations 0
smoothSolver:  Solving for Uy, Initial residual = 0.000103889, Final residual = 8.14648e-08, No Iterations 1
DICPCG:  Solving for p, Initial residual = 0.000536622, Final residual = 2.63273e-05, No Iterations 14
time step continuity errors : sum local = 1.89635e-11, global = 2.55112e-19, cumulative = -6.47234e-16
DICPCG:  Solving for p, Initial residual = 0.000515467, Final residual = 9.58093e-07, No Iterations 90
time step continuity errors : sum local = 5.91836e-13, global = -1.54744e-19, cumulative = -6.47388e-16
ExecutionTime = 25.5861 s  ClockTime = 26 s

Time = 0.99375s

Courant Number mean: 0.0500863 max: 0.141348
smoothSolver:  Solving for Ux, Initial residual = 7.82318e-06, Final residual = 7.82318e-06, No Iterations 0
smoothSolver:  Solving for Uy, Initial residual = 0.000104213, Final residual = 8.20472e-08, No Iterations 1
DICPCG:  Solving for p, Initial residual = 0.000704051, Final residual = 3.3753e-05, No Iterations 83
time step continuity errors : sum local = 2.08527e-11, global = -3.89137e-19, cumulative = -6.47778e-16
DICPCG:  Solving for p, Initial residual = 0.000520403, Final residual = 8.8717e-07, No Iterations 90
time step continuity errors : sum local = 5.52203e-13, global = -2.85564e-19, cumulative = -6.48063e-16
ExecutionTime = 25.5943 s  ClockTime = 26 s

Time = 0.994s

Courant Number mean: 0.0500863 max: 0.141347
smoothSolver:  Solving for Ux, Initial residual = 7.78504e-06, Final residual = 7.78504e-06, No Iterations 0
smoothSolver:  Solving for Uy, Initial residual = 0.00010451, Final residual = 8.24585e-08, No Iterations 1
DICPCG:  Solving for p, Initial residual = 0.000768864, Final residual = 3.78576e-05, No Iterations 84
time step continuity errors : sum local = 2.3327e-11, global = -2.56877e-19, cumulative = -6.4832e-16
DICPCG:  Solving for p, Initial residual = 0.000517851, Final residual = 9.81542e-07, No Iterations 92
time step continuity errors : sum local = 6.10293e-13, global = 3.32833e-19, cumulative = -6.47987e-16
ExecutionTime = 25.6028 s  ClockTime = 26 s

Time = 0.99425s

Courant Number mean: 0.0500863 max: 0.141346
smoothSolver:  Solving for Ux, Initial residual = 7.73758e-06, Final residual = 7.73758e-06, No Iterations 0
smoothSolver:  Solving for Uy, Initial residual = 0.000104817, Final residual = 8.27058e-08, No Iterations 1
DICPCG:  Solving for p, Initial residual = 0.000526038, Final residual = 2.06462e-05, No Iterations 87
time step continuity errors : sum local = 1.27052e-11, global = -1.9893e-22, cumulative = -6.47987e-16
DICPCG:  Solving for p, Initial residual = 0.000516741, Final residual = 7.57145e-07, No Iterations 86
time step continuity errors : sum local = 4.7024e-13, global = -7.19753e-20, cumulative = -6.48059e-16
ExecutionTime = 25.611 s  ClockTime = 26 s

Time = 0.9945s

Courant Number mean: 0.0500863 max: 0.141346
smoothSolver:  Solving for Ux, Initial residual = 7.68898e-06, Final residual = 7.68898e-06, No Iterations 0
smoothSolver:  Solving for Uy, Initial residual = 0.000105232, Final residual = 8.28207e-08, No Iterations 1
DICPCG:  Solving for p, Initial residual = 0.000482607, Final residual = 2.10839e-05, No Iterations 81
time step continuity errors : sum local = 1.31035e-11, global = 6.15872e-20, cumulative = -6.47998e-16
DICPCG:  Solving for p, Initial residual = 0.000514854, Final residual = 9.87178e-07, No Iterations 86
time step continuity errors : sum local = 6.056e-13, global = 1.74618e-19, cumulative = -6.47823e-16
ExecutionTime = 25.6192 s  ClockTime = 26 s

Time = 0.99475s

Courant Number mean: 0.0500863 max: 0.141345
smoothSolver:  Solving for Ux, Initial residual = 7.70128e-06, Final residual = 7.70128e-06, No Iterations 0
smoothSolver:  Solving for Uy, Initial residual = 0.000105352, Final residual = 8.31975e-08, No Iterations 1
DICPCG:  Solving for p, Initial residual = 0.000477207, Final residual = 2.04468e-05, No Iterations 82
time step continuity errors : sum local = 1.26933e-11, global = -4.68718e-19, cumulative = -6.48292e-16
DICPCG:  Solving for p, Initial residual = 0.000514081, Final residual = 9.42014e-07, No Iterations 88
time step continuity errors : sum local = 5.79975e-13, global = -1.95772e-19, cumulative = -6.48488e-16
ExecutionTime = 25.6273 s  ClockTime = 26 s

Time = 0.995s

Courant Number mean: 0.0500863 max: 0.141345
smoothSolver:  Solving for Ux, Initial residual = 7.71801e-06, Final residual = 7.71801e-06, No Iterations 0
smoothSolver:  Solving for Uy, Initial residual = 0.000105409, Final residual = 8.35752e-08, No Iterations 1
DICPCG:  Solving for p, Initial residual = 0.000531156, Final residual = 2.42304e-05, No Iterations 81
time step continuity errors : sum local = 1.50354e-11, global = -1.08483e-19, cumulative = -6.48596e-16
DICPCG:  Solving for p, Initial residual = 0.000511926, Final residual = 8.95982e-07, No Iterations 90
time step continuity errors : sum local = 5.51523e-13, global = 2.87333e-19, cumulative = -6.48309e-16
ExecutionTime = 25.6356 s  ClockTime = 26 s

Time = 0.99525s

Courant Number mean: 0.0500863 max: 0.141344
smoothSolver:  Solving for Ux, Initial residual = 7.74898e-06, Final residual = 7.74898e-06, No Iterations 0
smoothSolver:  Solving for Uy, Initial residual = 0.000105634, Final residual = 8.44182e-08, No Iterations 1
DICPCG:  Solving for p, Initial residual = 0.000684635, Final residual = 3.37984e-05, No Iterations 38
time step continuity errors : sum local = 2.43364e-11, global = -2.60397e-19, cumulative = -6.48569e-16
DICPCG:  Solving for p, Initial residual = 0.000512126, Final residual = 7.84741e-07, No Iterations 92
time step continuity errors : sum local = 4.82971e-13, global = 4.39726e-19, cumulative = -6.48129e-16
ExecutionTime = 25.6427 s  ClockTime = 26 s

Time = 0.9955s

Courant Number mean: 0.0500863 max: 0.141344
smoothSolver:  Solving for Ux, Initial residual = 7.78869e-06, Final residual = 7.78869e-06, No Iterations 0
smoothSolver:  Solving for Uy, Initial residual = 0.00010594, Final residual = 8.54654e-08, No Iterations 1
DICPCG:  Solving for p, Initial residual = 0.000568592, Final residual = 2.48347e-05, No Iterations 88
time step continuity errors : sum local = 1.53022e-11, global = -4.90841e-19, cumulative = -6.4862e-16
DICPCG:  Solving for p, Initial residual = 0.000509269, Final residual = 9.0538e-07, No Iterations 85
time step continuity errors : sum local = 5.62552e-13, global = -1.975e-19, cumulative = -6.48818e-16
ExecutionTime = 25.651 s  ClockTime = 26 s

Time = 0.99575s

Courant Number mean: 0.0500863 max: 0.141344
smoothSolver:  Solving for Ux, Initial residual = 8.02228e-06, Final residual = 8.02228e-06, No Iterations 0
smoothSolver:  Solving for Uy, Initial residual = 0.000106039, Final residual = 8.69315e-08, No Iterations 1
DICPCG:  Solving for p, Initial residual = 0.0006315, Final residual = 3.09984e-05, No Iterations 85
time step continuity errors : sum local = 1.92268e-11, global = 1.35544e-19, cumulative = -6.48682e-16
DICPCG:  Solving for p, Initial residual = 0.000509546, Final residual = 9.40452e-07, No Iterations 69
time step continuity errors : sum local = 5.92908e-13, global = 8.31451e-20, cumulative = -6.48599e-16
ExecutionTime = 25.6591 s  ClockTime = 26 s

Time = 0.996s

Courant Number mean: 0.0500864 max: 0.141343
smoothSolver:  Solving for Ux, Initial residual = 8.19159e-06, Final residual = 8.19159e-06, No Iterations 0
smoothSolver:  Solving for Uy, Initial residual = 0.0001062, Final residual = 8.8153e-08, No Iterations 1
DICPCG:  Solving for p, Initial residual = 0.000501878, Final residual = 2.47689e-05, No Iterations 84
time step continuity errors : sum local = 1.54126e-11, global = 2.30664e-19, cumulative = -6.48368e-16
DICPCG:  Solving for p, Initial residual = 0.000506882, Final residual = 9.76566e-07, No Iterations 66
time step continuity errors : sum local = 6.14611e-13, global = -5.15976e-19, cumulative = -6.48884e-16
ExecutionTime = 25.6666 s  ClockTime = 26 s

Time = 0.99625s

Courant Number mean: 0.0500864 max: 0.141343
smoothSolver:  Solving for Ux, Initial residual = 8.32954e-06, Final residual = 8.32954e-06, No Iterations 0
smoothSolver:  Solving for Uy, Initial residual = 0.000106369, Final residual = 8.92367e-08, No Iterations 1
DICPCG:  Solving for p, Initial residual = 0.000485489, Final residual = 2.33383e-05, No Iterations 81
time step continuity errors : sum local = 1.46173e-11, global = 1.46315e-19, cumulative = -6.48738e-16
DICPCG:  Solving for p, Initial residual = 0.000505339, Final residual = 9.72002e-07, No Iterations 39
time step continuity errors : sum local = 7.57949e-13, global = -2.62073e-19, cumulative = -6.49e-16
ExecutionTime = 25.6727 s  ClockTime = 26 s

Time = 0.9965s

Courant Number mean: 0.0500864 max: 0.141342
smoothSolver:  Solving for Ux, Initial residual = 8.42744e-06, Final residual = 8.42744e-06, No Iterations 0
smoothSolver:  Solving for Uy, Initial residual = 0.000106538, Final residual = 9.01166e-08, No Iterations 1
DICPCG:  Solving for p, Initial residual = 0.000501539, Final residual = 2.21785e-05, No Iterations 37
time step continuity errors : sum local = 1.55021e-11, global = 1.53718e-20, cumulative = -6.48985e-16
DICPCG:  Solving for p, Initial residual = 0.000506351, Final residual = 9.35515e-07, No Iterations 75
time step continuity errors : sum local = 5.87807e-13, global = -4.01591e-19, cumulative = -6.49386e-16
ExecutionTime = 25.6785 s  ClockTime = 26 s

Time = 0.99675s

Courant Number mean: 0.0500864 max: 0.141342
smoothSolver:  Solving for Ux, Initial residual = 8.48462e-06, Final residual = 8.48462e-06, No Iterations 0
smoothSolver:  Solving for Uy, Initial residual = 0.000106694, Final residual = 9.08283e-08, No Iterations 1
DICPCG:  Solving for p, Initial residual = 0.000498528, Final residual = 2.29463e-05, No Iterations 34
time step continuity errors : sum local = 1.464e-11, global = 2.4022e-19, cumulative = -6.49146e-16
DICPCG:  Solving for p, Initial residual = 0.000504894, Final residual = 7.48484e-07, No Iterations 93
time step continuity errors : sum local = 4.65644e-13, global = -2.88204e-19, cumulative = -6.49434e-16
ExecutionTime = 25.6848 s  ClockTime = 26 s

Time = 0.997s

Courant Number mean: 0.0500864 max: 0.141342
smoothSolver:  Solving for Ux, Initial residual = 8.50436e-06, Final residual = 8.50436e-06, No Iterations 0
smoothSolver:  Solving for Uy, Initial residual = 0.000106781, Final residual = 9.13302e-08, No Iterations 1
DICPCG:  Solving for p, Initial residual = 0.000552315, Final residual = 2.52648e-05, No Iterations 8
time step continuity errors : sum local = 1.64455e-11, global = -4.79984e-19, cumulative = -6.49914e-16
DICPCG:  Solving for p, Initial residual = 0.000501495, Final residual = 9.45448e-07, No Iterations 91
time step continuity errors : sum local = 5.88385e-13, global = -1.18123e-19, cumulative = -6.50032e-16
ExecutionTime = 25.6901 s  ClockTime = 26 s

Time = 0.99725s

Courant Number mean: 0.0500865 max: 0.141342
smoothSolver:  Solving for Ux, Initial residual = 8.48899e-06, Final residual = 8.48899e-06, No Iterations 0
smoothSolver:  Solving for Uy, Initial residual = 0.000106802, Final residual = 9.16505e-08, No Iterations 1
DICPCG:  Solving for p, Initial residual = 0.000723289, Final residual = 3.34186e-05, No Iterations 8
time step continuity errors : sum local = 2.15713e-11, global = -2.13784e-19, cumulative = -6.50246e-16
DICPCG:  Solving for p, Initial residual = 0.000504194, Final residual = 9.4324e-07, No Iterations 92
time step continuity errors : sum local = 5.85264e-13, global = -3.84555e-19, cumulative = -6.50631e-16
ExecutionTime = 25.6955 s  ClockTime = 26 s

Time = 0.9975s

Courant Number mean: 0.0500865 max: 0.141341
smoothSolver:  Solving for Ux, Initial residual = 8.44647e-06, Final residual = 8.44647e-06, No Iterations 0
smoothSolver:  Solving for Uy, Initial residual = 0.000106769, Final residual = 9.18527e-08, No Iterations 1
DICPCG:  Solving for p, Initial residual = 0.000580441, Final residual = 2.52118e-05, No Iterations 35
time step continuity errors : sum local = 1.57716e-11, global = -1.60155e-19, cumulative = -6.50791e-16
DICPCG:  Solving for p, Initial residual = 0.000505137, Final residual = 8.78718e-07, No Iterations 90
time step continuity errors : sum local = 5.44902e-13, global = -8.14112e-21, cumulative = -6.50799e-16
ExecutionTime = 25.7018 s  ClockTime = 26 s

Time = 0.99775s

Courant Number mean: 0.0500865 max: 0.141341
smoothSolver:  Solving for Ux, Initial residual = 8.47125e-06, Final residual = 8.47125e-06, No Iterations 0
smoothSolver:  Solving for Uy, Initial residual = 0.000107078, Final residual = 9.29198e-08, No Iterations 1
DICPCG:  Solving for p, Initial residual = 0.000498306, Final residual = 2.17006e-05, No Iterations 39
time step continuity errors : sum local = 1.38589e-11, global = -2.38643e-19, cumulative = -6.51038e-16
DICPCG:  Solving for p, Initial residual = 0.000503073, Final residual = 7.5218e-07, No Iterations 92
time step continuity errors : sum local = 4.67005e-13, global = 9.52578e-19, cumulative = -6.50085e-16
ExecutionTime = 25.7084 s  ClockTime = 26 s

Time = 0.998s

Courant Number mean: 0.0500865 max: 0.141341
smoothSolver:  Solving for Ux, Initial residual = 8.52057e-06, Final residual = 8.52057e-06, No Iterations 0
smoothSolver:  Solving for Uy, Initial residual = 0.000107556, Final residual = 9.44265e-08, No Iterations 1
DICPCG:  Solving for p, Initial residual = 0.000579289, Final residual = 2.80403e-05, No Iterations 38
time step continuity errors : sum local = 1.95912e-11, global = -3.29785e-19, cumulative = -6.50415e-16
DICPCG:  Solving for p, Initial residual = 0.000502973, Final residual = 9.35215e-07, No Iterations 75
time step continuity errors : sum local = 5.84765e-13, global = 7.3555e-20, cumulative = -6.50341e-16
ExecutionTime = 25.7142 s  ClockTime = 26 s

Time = 0.99825s

Courant Number mean: 0.0500865 max: 0.141341
smoothSolver:  Solving for Ux, Initial residual = 8.61491e-06, Final residual = 8.61491e-06, No Iterations 0
smoothSolver:  Solving for Uy, Initial residual = 0.000107974, Final residual = 9.58226e-08, No Iterations 1
DICPCG:  Solving for p, Initial residual = 0.000568281, Final residual = 2.50921e-05, No Iterations 39
time step continuity errors : sum local = 1.84946e-11, global = -4.49575e-19, cumulative = -6.50791e-16
DICPCG:  Solving for p, Initial residual = 0.000501875, Final residual = 9.44498e-07, No Iterations 92
time step continuity errors : sum local = 5.89707e-13, global = -1.83e-19, cumulative = -6.50974e-16
ExecutionTime = 25.7208 s  ClockTime = 26 s

Time = 0.9985s

Courant Number mean: 0.0500865 max: 0.141341
smoothSolver:  Solving for Ux, Initial residual = 8.73389e-06, Final residual = 8.73389e-06, No Iterations 0
smoothSolver:  Solving for Uy, Initial residual = 0.000108391, Final residual = 9.71716e-08, No Iterations 1
DICPCG:  Solving for p, Initial residual = 0.000586116, Final residual = 2.74482e-05, No Iterations 37
time step continuity errors : sum local = 1.9088e-11, global = -3.73152e-20, cumulative = -6.51011e-16
DICPCG:  Solving for p, Initial residual = 0.000504038, Final residual = 8.87676e-07, No Iterations 76
time step continuity errors : sum local = 5.59401e-13, global = 1.00041e-19, cumulative = -6.50911e-16
ExecutionTime = 25.7267 s  ClockTime = 26 s

Time = 0.99875s

Courant Number mean: 0.0500866 max: 0.141341
smoothSolver:  Solving for Ux, Initial residual = 8.82725e-06, Final residual = 8.82725e-06, No Iterations 0
smoothSolver:  Solving for Uy, Initial residual = 0.00010873, Final residual = 9.83189e-08, No Iterations 1
DICPCG:  Solving for p, Initial residual = 0.000571089, Final residual = 2.59404e-05, No Iterations 36
time step continuity errors : sum local = 1.7205e-11, global = 4.02894e-19, cumulative = -6.50508e-16
DICPCG:  Solving for p, Initial residual = 0.000501285, Final residual = 9.10365e-07, No Iterations 88
time step continuity errors : sum local = 5.70816e-13, global = -4.59958e-20, cumulative = -6.50554e-16
ExecutionTime = 25.733 s  ClockTime = 26 s

Time = 0.999s

Courant Number mean: 0.0500866 max: 0.141341
smoothSolver:  Solving for Ux, Initial residual = 8.89064e-06, Final residual = 8.89064e-06, No Iterations 0
smoothSolver:  Solving for Uy, Initial residual = 0.000108976, Final residual = 9.92017e-08, No Iterations 1
DICPCG:  Solving for p, Initial residual = 0.00068284, Final residual = 3.00727e-05, No Iterations 33
time step continuity errors : sum local = 1.89082e-11, global = -9.59357e-20, cumulative = -6.5065e-16
DICPCG:  Solving for p, Initial residual = 0.000500717, Final residual = 9.45075e-07, No Iterations 63
time step continuity errors : sum local = 6.52814e-13, global = -4.1353e-19, cumulative = -6.51064e-16
ExecutionTime = 25.7381 s  ClockTime = 26 s

Time = 0.99925s

Courant Number mean: 0.0500866 max: 0.141341
smoothSolver:  Solving for Ux, Initial residual = 8.92639e-06, Final residual = 8.92639e-06, No Iterations 0
smoothSolver:  Solving for Uy, Initial residual = 0.000109093, Final residual = 9.98603e-08, No Iterations 1
DICPCG:  Solving for p, Initial residual = 0.000620538, Final residual = 2.71812e-05, No Iterations 38
time step continuity errors : sum local = 1.95014e-11, global = -5.46852e-19, cumulative = -6.51611e-16
DICPCG:  Solving for p, Initial residual = 0.000500967, Final residual = 8.9362e-07, No Iterations 94
time step continuity errors : sum local = 5.5853e-13, global = 1.13729e-20, cumulative = -6.51599e-16
ExecutionTime = 25.7448 s  ClockTime = 26 s

Time = 0.9995s

Courant Number mean: 0.0500866 max: 0.141341
smoothSolver:  Solving for Ux, Initial residual = 9.04111e-06, Final residual = 9.04111e-06, No Iterations 0
smoothSolver:  Solving for Uy, Initial residual = 0.000109233, Final residual = 1.00533e-07, No Iterations 1
DICPCG:  Solving for p, Initial residual = 0.000527177, Final residual = 2.55738e-05, No Iterations 79
time step continuity errors : sum local = 1.59938e-11, global = 9.34404e-20, cumulative = -6.51506e-16
DICPCG:  Solving for p, Initial residual = 0.000501304, Final residual = 9.03316e-07, No Iterations 38
time step continuity errors : sum local = 6.04612e-13, global = -3.81753e-19, cumulative = -6.51888e-16
ExecutionTime = 25.7508 s  ClockTime = 26 s

Time = 0.99975s

Courant Number mean: 0.0500867 max: 0.141341
smoothSolver:  Solving for Ux, Initial residual = 9.23215e-06, Final residual = 9.23215e-06, No Iterations 0
smoothSolver:  Solving for Uy, Initial residual = 0.0001094, Final residual = 1.01272e-07, No Iterations 1
DICPCG:  Solving for p, Initial residual = 0.000557307, Final residual = 2.75429e-05, No Iterations 37
time step continuity errors : sum local = 1.88042e-11, global = -2.29163e-20, cumulative = -6.51911e-16
DICPCG:  Solving for p, Initial residual = 0.00050248, Final residual = 9.80204e-07, No Iterations 86
time step continuity errors : sum local = 6.14785e-13, global = -2.76121e-19, cumulative = -6.52187e-16
ExecutionTime = 25.7578 s  ClockTime = 26 s

Time = 1s

Courant Number mean: 0.0500867 max: 0.141341
smoothSolver:  Solving for Ux, Initial residual = 9.31862e-06, Final residual = 9.31862e-06, No Iterations 0
smoothSolver:  Solving for Uy, Initial residual = 0.000109488, Final residual = 1.01705e-07, No Iterations 1
DICPCG:  Solving for p, Initial residual = 0.000609807, Final residual = 2.65051e-05, No Iterations 7
time step continuity errors : sum local = 1.76004e-11, global = 6.05431e-19, cumulative = -6.51581e-16
DICPCG:  Solving for p, Initial residual = 0.000499926, Final residual = 9.995e-07, No Iterations 95
time step continuity errors : sum local = 6.22689e-13, global = -3.73216e-20, cumulative = -6.51619e-16
ExecutionTime = 25.7845 s  ClockTime = 26 s

End

